xflr5 v6.57

Plane Name
T1-10.0 m/s-Panel-Inviscid
QInf  =   10.000000 m/s
Alpha =    0.000000
Beta  =    0.000°
Phi   =    0.000°
Ctrl  =    0.000
CL    =    0.490938
Cy    =   -0.000000
Cd    =    0.007743     ICd   =    0.007743     PCd   =    0.000000
Cl   = -8.39964e-15
Cm   =   -0.866375
ICn   =    0.000000     PCn   =    0.000000 
XCP   =    7.442152     YCP   =    0.000000     ZCP   =    0.472677  
XNP   =    0.000000
Bending = 15559.971770

Main Wing
  y-span        Chord      Ai         Cl        PCd          ICd        CmGeom    CmAirf@chord/4    XTrtop    XTrBot      XCP       BM
  -18.3689     1.2203   -45.835    0.071272    0.000000    0.073384   -2.676408   -0.036409     0.0000    0.0000    0.4014    0.0000
  -18.3643     1.2215   -10.461    0.106248    0.000000    0.019619   -2.554344   -0.042091     0.0000    0.0000    0.4323    0.0001
  -18.3553     1.2239    -7.499    0.147306    0.000000    0.019392   -2.353546   -0.040353     0.0000    0.0000    0.4381    0.0007
  -18.3417     1.2276    -6.197    0.187531    0.000000    0.020363   -2.425172   -0.042694     0.0000    0.0000    0.4413    0.0033
  -18.3236     1.2324    -5.425    0.226191    0.000000    0.021481   -2.607598   -0.046664     0.0000    0.0000    0.4425    0.0111
  -18.3009     1.2384    -4.910    0.263047    0.000000    0.022597   -2.841564   -0.051706     0.0000    0.0000    0.4440    0.0288
  -18.2738     1.2457    -4.509    0.297887    0.000000    0.023491   -3.104182   -0.057510     0.0000    0.0000    0.4459    0.0639
  -18.2421     1.2541    -4.169    0.330568    0.000000    0.024097   -3.376948   -0.063716     0.0000    0.0000    0.4478    0.1266
  -18.2059     1.2638    -3.868    0.361003    0.000000    0.024409   -3.642229   -0.069967     0.0000    0.0000    0.4496    0.2302
  -18.1653     1.2746    -3.594    0.389151    0.000000    0.024444   -3.888559   -0.076022     0.0000    0.0000    0.4512    0.3915
  -18.1201     1.2866    -3.340    0.415005    0.000000    0.024223   -4.109737   -0.081743     0.0000    0.0000    0.4525    0.6310
  -18.0705     1.2999    -3.103    0.438594    0.000000    0.023779   -4.302765   -0.087059     0.0000    0.0000    0.4536    0.9732
  -18.0165     1.3143    -2.880    0.459975    0.000000    0.023145   -4.466353   -0.091927     0.0000    0.0000    0.4545    1.4466
  -17.9580     1.3299    -2.671    0.479229    0.000000    0.022361   -4.600497   -0.096332     0.0000    0.0000    0.4552    2.0843
  -17.8950     1.3467    -2.475    0.496461    0.000000    0.021460   -4.706095   -0.100276     0.0000    0.0000    0.4557    2.9235
  -17.8277     1.3647    -2.291    0.511790    0.000000    0.020480   -4.784597   -0.103775     0.0000    0.0000    0.4561    4.0061
  -17.7559     1.3838    -2.120    0.525344    0.000000    0.019452   -4.837879   -0.106853     0.0000    0.0000    0.4564    5.3788
  -17.6798     1.4041    -1.962    0.537260    0.000000    0.018406   -4.868062   -0.109542     0.0000    0.0000    0.4566    7.0928
  -17.5993     1.4256    -1.816    0.547676    0.000000    0.017365   -4.877349   -0.111876     0.0000    0.0000    0.4567    9.2042
  -17.5144     1.4482    -1.683    0.556730    0.000000    0.016356   -4.868018   -0.113897     0.0000    0.0000    0.4568   11.7741
  -17.4252     1.4720    -1.561    0.564548    0.000000    0.015385   -4.842196   -0.115637     0.0000    0.0000    0.4569   14.8683
  -17.3318     1.4969    -1.451    0.571255    0.000000    0.014467   -4.801965   -0.117131     0.0000    0.0000    0.4570   18.5579
  -17.2340     1.5230    -1.351    0.576966    0.000000    0.013609   -4.749242   -0.118412     0.0000    0.0000    0.4570   22.9191
  -17.1321     1.5502    -1.262    0.581784    0.000000    0.012813   -4.685808   -0.119510     0.0000    0.0000    0.4571   28.0330
  -17.0258     1.5785    -1.181    0.585806    0.000000    0.012082   -4.613288   -0.120450     0.0000    0.0000    0.4572   33.9863
  -16.9154     1.6080    -1.110    0.589118    0.000000    0.011415   -4.533116   -0.121254     0.0000    0.0000    0.4574   40.8710
  -16.8008     1.6386    -1.046    0.591796    0.000000    0.010809   -4.446608   -0.121943     0.0000    0.0000    0.4576   48.7841
  -16.6821     1.6702    -0.990    0.593910    0.000000    0.010263   -4.354924   -0.122533     0.0000    0.0000    0.4578   57.8287
  -16.5592     1.7030    -0.940    0.595521    0.000000    0.009773   -4.259101   -0.123039     0.0000    0.0000    0.4581   68.1129
  -16.4323     1.7369    -0.896    0.596683    0.000000    0.009334   -4.160044   -0.123472     0.0000    0.0000    0.4584   79.7507
  -16.3013     1.7718    -0.858    0.597447    0.000000    0.008947   -4.058560   -0.123844     0.0000    0.0000    0.4588   92.8616
  -16.1663     1.8078    -0.824    0.597853    0.000000    0.008603   -3.955345   -0.124165     0.0000    0.0000    0.4592   107.5711
  -16.0273     1.8449    -0.795    0.597938    0.000000    0.008300   -3.851008   -0.124439     0.0000    0.0000    0.4596   124.0101
  -15.8843     1.8830    -0.770    0.597737    0.000000    0.008034   -3.746090   -0.124676     0.0000    0.0000    0.4601   142.3155
  -15.7374     1.9222    -0.748    0.597278    0.000000    0.007802   -3.641053   -0.124878     0.0000    0.0000    0.4606   162.6300
  -15.5867     1.9624    -0.730    0.596589    0.000000    0.007605   -3.536304   -0.125054     0.0000    0.0000    0.4612   185.1021
  -15.4320     2.0037    -0.715    0.595689    0.000000    0.007431   -3.432155   -0.125202     0.0000    0.0000    0.4618   209.8861
  -15.2736     2.0459    -0.702    0.594601    0.000000    0.007285   -3.328934   -0.125330     0.0000    0.0000    0.4625   237.1422
  -15.1114     2.0892    -0.692    0.593342    0.000000    0.007163   -3.226881   -0.125439     0.0000    0.0000    0.4631   267.0364
  -14.9455     2.1334    -0.683    0.591929    0.000000    0.007061   -3.126209   -0.125532     0.0000    0.0000    0.4639   299.7403
  -14.7759     2.1787    -0.677    0.590373    0.000000    0.006978   -3.027089   -0.125611     0.0000    0.0000    0.4646   335.4315
  -14.6027     2.2249    -0.673    0.588689    0.000000    0.006912   -2.929673   -0.125679     0.0000    0.0000    0.4654   374.2930
  -14.4258     2.2721    -0.670    0.586886    0.000000    0.006861   -2.834077   -0.125735     0.0000    0.0000    0.4662   416.5135
  -14.2454     2.3202    -0.668    0.584973    0.000000    0.006824   -2.740399   -0.125782     0.0000    0.0000    0.4671   462.2870
  -14.0615     2.3692    -0.668    0.582959    0.000000    0.006800   -2.648714   -0.125821     0.0000    0.0000    0.4680   511.8131
  -13.8741     2.4192    -0.669    0.580852    0.000000    0.006786   -2.559083   -0.125853     0.0000    0.0000    0.4689   565.2964
  -13.6833     2.4701    -0.671    0.578656    0.000000    0.006782   -2.471545   -0.125878     0.0000    0.0000    0.4699   622.9466
  -13.4891     2.5219    -0.675    0.576381    0.000000    0.006789   -2.386134   -0.125898     0.0000    0.0000    0.4708   684.9783
  -13.2916     2.5746    -0.679    0.574028    0.000000    0.006802   -2.302865   -0.125913     0.0000    0.0000    0.4718   751.6106
  -13.0908     2.6282    -0.684    0.571603    0.000000    0.006824   -2.221745   -0.125924     0.0000    0.0000    0.4729   823.0675
  -12.8867     2.6826    -0.690    0.569107    0.000000    0.006850   -2.142761   -0.125929     0.0000    0.0000    0.4740   899.5767
  -12.6795     2.7379    -0.696    0.566547    0.000000    0.006883   -2.065915   -0.125932     0.0000    0.0000    0.4751   981.3702
  -12.4692     2.7940    -0.703    0.563922    0.000000    0.006920   -1.991188   -0.125932     0.0000    0.0000    0.4762   1068.6837
  -12.2558     2.8509    -0.711    0.561238    0.000000    0.006962   -1.918562   -0.125928     0.0000    0.0000    0.4774   1161.7562
  -12.0393     2.9086    -0.719    0.558494    0.000000    0.007008   -1.848011   -0.125922     0.0000    0.0000    0.4786   1260.8297
  -11.8199     2.9672    -0.728    0.555693    0.000000    0.007057   -1.779490   -0.125914     0.0000    0.0000    0.4799   1366.1493
  -11.5976     3.0265    -0.737    0.552836    0.000000    0.007109   -1.712984   -0.125903     0.0000    0.0000    0.4811   1477.9621
  -11.3724     3.0865    -0.746    0.549924    0.000000    0.007163   -1.648451   -0.125891     0.0000    0.0000    0.4824   1596.5175
  -11.1444     3.1473    -0.756    0.546958    0.000000    0.007219   -1.585851   -0.125877     0.0000    0.0000    0.4838   1722.0664
  -10.9137     3.2089    -0.766    0.543937    0.000000    0.007277   -1.525148   -0.125862     0.0000    0.0000    0.4852   1854.8609
  -10.6802     3.2712    -0.777    0.540864    0.000000    0.007337   -1.466297   -0.125845     0.0000    0.0000    0.4866   1995.1540
  -10.4442     3.3341    -0.788    0.537735    0.000000    0.007396   -1.409257   -0.125827     0.0000    0.0000    0.4881   2143.1989
  -10.2055     3.3978    -0.799    0.534553    0.000000    0.007456   -1.353986   -0.125808     0.0000    0.0000    0.4896   2299.2486
   -9.9643     3.4621    -0.810    0.531317    0.000000    0.007517   -1.300442   -0.125788     0.0000    0.0000    0.4911   2463.5555
   -9.7207     3.5271    -0.822    0.528025    0.000000    0.007577   -1.248583   -0.125767     0.0000    0.0000    0.4928   2636.3709
   -9.4747     3.5927    -0.834    0.524677    0.000000    0.007637   -1.198365   -0.125746     0.0000    0.0000    0.4944   2817.9445
   -9.2263     3.6590    -0.846    0.521272    0.000000    0.007696   -1.149745   -0.125724     0.0000    0.0000    0.4961   3008.5233
   -8.9757     3.7258    -0.858    0.517809    0.000000    0.007754   -1.102682   -0.125702     0.0000    0.0000    0.4979   3208.3521
   -8.7228     3.7933    -0.870    0.514286    0.000000    0.007812   -1.057136   -0.125680     0.0000    0.0000    0.4997   3417.6719
   -8.4678     3.8613    -0.882    0.510702    0.000000    0.007867   -1.013065   -0.125658     0.0000    0.0000    0.5016   3636.7200
   -8.2107     3.9299    -0.895    0.507054    0.000000    0.007920   -0.970428   -0.125636     0.0000    0.0000    0.5035   3865.7288
   -7.9516     3.9990    -0.907    0.503341    0.000000    0.007971   -0.929189   -0.125616     0.0000    0.0000    0.5055   4104.9257
   -7.6905     4.0686    -0.919    0.499560    0.000000    0.008019   -0.889307   -0.125596     0.0000    0.0000    0.5076   4354.5324
   -7.4276     4.1388    -0.932    0.495708    0.000000    0.008064   -0.850746   -0.125578     0.0000    0.0000    0.5097   4614.7637
   -7.1628     4.2094    -0.944    0.491784    0.000000    0.008106   -0.813469   -0.125563     0.0000    0.0000    0.5120   4885.8277
   -6.8962     4.2805    -0.956    0.487783    0.000000    0.008143   -0.777441   -0.125550     0.0000    0.0000    0.5143   5167.9243
   -6.6279     4.3521    -0.968    0.483703    0.000000    0.008176   -0.742630   -0.125540     0.0000    0.0000    0.5167   5461.2451
   -6.3580     4.4241    -0.980    0.479540    0.000000    0.008204   -0.709002   -0.125535     0.0000    0.0000    0.5193   5765.9725
   -6.0865     4.4965    -0.991    0.475290    0.000000    0.008227   -0.676527   -0.125535     0.0000    0.0000    0.5219   6082.2789
   -5.8135     4.5693    -1.002    0.470948    0.000000    0.008242   -0.645173   -0.125541     0.0000    0.0000    0.5247   6410.3260
   -5.5391     4.6425    -1.013    0.466510    0.000000    0.008251   -0.614913   -0.125556     0.0000    0.0000    0.5276   6750.2644
   -5.2633     4.7161    -1.023    0.461970    0.000000    0.008251   -0.585718   -0.125581     0.0000    0.0000    0.5307   7102.2324
   -4.9862     4.7900    -1.032    0.457323    0.000000    0.008242   -0.557564   -0.125618     0.0000    0.0000    0.5339   7466.3556
   -4.7079     4.8642    -1.040    0.452563    0.000000    0.008222   -0.530425   -0.125669     0.0000    0.0000    0.5373   7842.7459
   -4.4284     4.9388    -1.048    0.447683    0.000000    0.008190   -0.504278   -0.125739     0.0000    0.0000    0.5410   8231.5011
   -4.1478     5.0136    -1.053    0.442674    0.000000    0.008143   -0.479104   -0.125830     0.0000    0.0000    0.5448   8632.7036
   -3.8662     5.0887    -1.058    0.437531    0.000000    0.008081   -0.454882   -0.125948     0.0000    0.0000    0.5490   9046.4201
   -3.5837     5.1641    -1.060    0.432243    0.000000    0.007999   -0.431597   -0.126099     0.0000    0.0000    0.5534   9472.7006
   -3.3003     5.2397    -1.059    0.426802    0.000000    0.007895   -0.409234   -0.126289     0.0000    0.0000    0.5582   9911.5776
   -3.0160     5.3155    -1.056    0.421197    0.000000    0.007765   -0.387780   -0.126526     0.0000    0.0000    0.5633   10363.0654
   -2.7310     5.3915    -1.048    0.415417    0.000000    0.007602   -0.367229   -0.126822     0.0000    0.0000    0.5690   10827.1592
   -2.4454     5.4677    -1.035    0.409452    0.000000    0.007401   -0.347576   -0.127189     0.0000    0.0000    0.5752   11303.8341
   -2.1591     5.5441    -1.015    0.403287    0.000000    0.007152   -0.328820   -0.127644     0.0000    0.0000    0.5820   11793.0447
   -1.8723     5.6206    -0.987    0.396914    0.000000    0.006844   -0.310970   -0.128207     0.0000    0.0000    0.5896   12294.7240
   -1.5850     5.6972    -0.947    0.390318    0.000000    0.006459   -0.294040   -0.128908     0.0000    0.0000    0.5981   12808.7825
   -1.2974     5.7739    -0.891    0.383489    0.000000    0.005972   -0.278058   -0.129781     0.0000    0.0000    0.6077   13335.1077
   -1.0094     5.8508    -0.812    0.376417    0.000000    0.005345   -0.263074   -0.130880     0.0000    0.0000    0.6188   13873.5633
   -0.7212     5.9276    -0.698    0.369080    0.000000    0.004510   -0.249167   -0.132284     0.0000    0.0000    0.6316   14423.9883
   -0.4328     6.0046    -0.527    0.361356    0.000000    0.003340   -0.236498   -0.134147     0.0000    0.0000    0.6468   14986.1964
   -0.1443     6.0815    -0.249    0.351405    0.000000    0.001546   -0.226811   -0.136704     0.0000    0.0000    0.6586   15559.9718
    0.1443     6.0815    -0.249    0.351405    0.000000    0.001546   -0.226811   -0.136704     0.0000    0.0000    0.6586   15559.9718
    0.4328     6.0046    -0.527    0.361356    0.000000    0.003340   -0.236498   -0.134147     0.0000    0.0000    0.6468   14986.1964
    0.7212     5.9276    -0.698    0.369080    0.000000    0.004510   -0.249167   -0.132284     0.0000    0.0000    0.6316   14423.9883
    1.0094     5.8508    -0.812    0.376417    0.000000    0.005345   -0.263074   -0.130880     0.0000    0.0000    0.6188   13873.5633
    1.2974     5.7739    -0.891    0.383489    0.000000    0.005972   -0.278058   -0.129781     0.0000    0.0000    0.6077   13335.1077
    1.5850     5.6972    -0.947    0.390318    0.000000    0.006459   -0.294040   -0.128908     0.0000    0.0000    0.5981   12808.7825
    1.8723     5.6206    -0.987    0.396914    0.000000    0.006844   -0.310970   -0.128207     0.0000    0.0000    0.5896   12294.7240
    2.1591     5.5441    -1.015    0.403287    0.000000    0.007152   -0.328820   -0.127644     0.0000    0.0000    0.5820   11793.0447
    2.4454     5.4677    -1.035    0.409452    0.000000    0.007401   -0.347576   -0.127189     0.0000    0.0000    0.5752   11303.8341
    2.7310     5.3915    -1.048    0.415417    0.000000    0.007602   -0.367229   -0.126822     0.0000    0.0000    0.5690   10827.1592
    3.0160     5.3155    -1.056    0.421197    0.000000    0.007765   -0.387780   -0.126526     0.0000    0.0000    0.5633   10363.0654
    3.3003     5.2397    -1.059    0.426802    0.000000    0.007895   -0.409234   -0.126289     0.0000    0.0000    0.5582   9911.5776
    3.5837     5.1641    -1.060    0.432243    0.000000    0.007999   -0.431597   -0.126099     0.0000    0.0000    0.5534   9472.7006
    3.8662     5.0887    -1.058    0.437531    0.000000    0.008081   -0.454882   -0.125948     0.0000    0.0000    0.5490   9046.4201
    4.1478     5.0136    -1.053    0.442674    0.000000    0.008143   -0.479104   -0.125830     0.0000    0.0000    0.5448   8632.7036
    4.4284     4.9388    -1.048    0.447683    0.000000    0.008190   -0.504278   -0.125739     0.0000    0.0000    0.5410   8231.5011
    4.7079     4.8642    -1.040    0.452563    0.000000    0.008222   -0.530425   -0.125669     0.0000    0.0000    0.5373   7842.7459
    4.9862     4.7900    -1.032    0.457323    0.000000    0.008242   -0.557564   -0.125618     0.0000    0.0000    0.5339   7466.3556
    5.2633     4.7161    -1.023    0.461970    0.000000    0.008251   -0.585718   -0.125581     0.0000    0.0000    0.5307   7102.2324
    5.5391     4.6425    -1.013    0.466510    0.000000    0.008251   -0.614913   -0.125556     0.0000    0.0000    0.5276   6750.2644
    5.8135     4.5693    -1.002    0.470948    0.000000    0.008242   -0.645173   -0.125541     0.0000    0.0000    0.5247   6410.3260
    6.0865     4.4965    -0.991    0.475290    0.000000    0.008227   -0.676527   -0.125535     0.0000    0.0000    0.5219   6082.2789
    6.3580     4.4241    -0.980    0.479540    0.000000    0.008204   -0.709002   -0.125535     0.0000    0.0000    0.5193   5765.9725
    6.6279     4.3521    -0.968    0.483703    0.000000    0.008176   -0.742630   -0.125540     0.0000    0.0000    0.5167   5461.2451
    6.8962     4.2805    -0.956    0.487783    0.000000    0.008143   -0.777441   -0.125550     0.0000    0.0000    0.5143   5167.9243
    7.1628     4.2094    -0.944    0.491784    0.000000    0.008106   -0.813469   -0.125563     0.0000    0.0000    0.5120   4885.8277
    7.4276     4.1388    -0.932    0.495708    0.000000    0.008064   -0.850746   -0.125578     0.0000    0.0000    0.5097   4614.7637
    7.6905     4.0686    -0.919    0.499560    0.000000    0.008019   -0.889307   -0.125596     0.0000    0.0000    0.5076   4354.5324
    7.9516     3.9990    -0.907    0.503341    0.000000    0.007971   -0.929189   -0.125616     0.0000    0.0000    0.5055   4104.9257
    8.2107     3.9299    -0.895    0.507054    0.000000    0.007920   -0.970428   -0.125636     0.0000    0.0000    0.5035   3865.7288
    8.4678     3.8613    -0.882    0.510702    0.000000    0.007867   -1.013065   -0.125658     0.0000    0.0000    0.5016   3636.7200
    8.7228     3.7933    -0.870    0.514286    0.000000    0.007812   -1.057136   -0.125680     0.0000    0.0000    0.4997   3417.6719
    8.9757     3.7258    -0.858    0.517809    0.000000    0.007754   -1.102682   -0.125702     0.0000    0.0000    0.4979   3208.3521
    9.2263     3.6590    -0.846    0.521272    0.000000    0.007696   -1.149745   -0.125724     0.0000    0.0000    0.4961   3008.5233
    9.4747     3.5927    -0.834    0.524677    0.000000    0.007637   -1.198365   -0.125746     0.0000    0.0000    0.4944   2817.9445
    9.7207     3.5271    -0.822    0.528025    0.000000    0.007577   -1.248583   -0.125767     0.0000    0.0000    0.4928   2636.3709
    9.9643     3.4621    -0.810    0.531317    0.000000    0.007517   -1.300442   -0.125788     0.0000    0.0000    0.4911   2463.5555
   10.2055     3.3978    -0.799    0.534553    0.000000    0.007456   -1.353986   -0.125808     0.0000    0.0000    0.4896   2299.2486
   10.4442     3.3341    -0.788    0.537735    0.000000    0.007396   -1.409257   -0.125827     0.0000    0.0000    0.4881   2143.1989
   10.6802     3.2712    -0.777    0.540864    0.000000    0.007337   -1.466297   -0.125845     0.0000    0.0000    0.4866   1995.1540
   10.9137     3.2089    -0.766    0.543937    0.000000    0.007277   -1.525148   -0.125862     0.0000    0.0000    0.4852   1854.8609
   11.1444     3.1473    -0.756    0.546958    0.000000    0.007219   -1.585851   -0.125877     0.0000    0.0000    0.4838   1722.0664
   11.3724     3.0865    -0.746    0.549924    0.000000    0.007163   -1.648451   -0.125891     0.0000    0.0000    0.4824   1596.5175
   11.5976     3.0265    -0.737    0.552836    0.000000    0.007109   -1.712984   -0.125903     0.0000    0.0000    0.4811   1477.9621
   11.8199     2.9672    -0.728    0.555693    0.000000    0.007057   -1.779490   -0.125914     0.0000    0.0000    0.4799   1366.1493
   12.0393     2.9086    -0.719    0.558494    0.000000    0.007008   -1.848011   -0.125922     0.0000    0.0000    0.4786   1260.8297
   12.2558     2.8509    -0.711    0.561238    0.000000    0.006962   -1.918562   -0.125928     0.0000    0.0000    0.4774   1161.7562
   12.4692     2.7940    -0.703    0.563922    0.000000    0.006920   -1.991188   -0.125932     0.0000    0.0000    0.4762   1068.6837
   12.6795     2.7379    -0.696    0.566547    0.000000    0.006883   -2.065915   -0.125932     0.0000    0.0000    0.4751   981.3702
   12.8867     2.6826    -0.690    0.569107    0.000000    0.006850   -2.142761   -0.125929     0.0000    0.0000    0.4740   899.5767
   13.0908     2.6282    -0.684    0.571603    0.000000    0.006824   -2.221745   -0.125924     0.0000    0.0000    0.4729   823.0675
   13.2916     2.5746    -0.679    0.574028    0.000000    0.006802   -2.302865   -0.125913     0.0000    0.0000    0.4718   751.6106
   13.4891     2.5219    -0.675    0.576381    0.000000    0.006789   -2.386134   -0.125898     0.0000    0.0000    0.4708   684.9783
   13.6833     2.4701    -0.671    0.578656    0.000000    0.006782   -2.471545   -0.125878     0.0000    0.0000    0.4699   622.9466
   13.8741     2.4192    -0.669    0.580852    0.000000    0.006786   -2.559083   -0.125853     0.0000    0.0000    0.4689   565.2964
   14.0615     2.3692    -0.668    0.582959    0.000000    0.006800   -2.648714   -0.125821     0.0000    0.0000    0.4680   511.8131
   14.2454     2.3202    -0.668    0.584973    0.000000    0.006824   -2.740399   -0.125782     0.0000    0.0000    0.4671   462.2870
   14.4258     2.2721    -0.670    0.586886    0.000000    0.006861   -2.834077   -0.125735     0.0000    0.0000    0.4662   416.5135
   14.6027     2.2249    -0.673    0.588689    0.000000    0.006912   -2.929673   -0.125679     0.0000    0.0000    0.4654   374.2930
   14.7759     2.1787    -0.677    0.590373    0.000000    0.006978   -3.027089   -0.125611     0.0000    0.0000    0.4646   335.4315
   14.9455     2.1334    -0.683    0.591929    0.000000    0.007061   -3.126209   -0.125532     0.0000    0.0000    0.4639   299.7403
   15.1114     2.0892    -0.692    0.593342    0.000000    0.007163   -3.226881   -0.125439     0.0000    0.0000    0.4631   267.0364
   15.2736     2.0459    -0.702    0.594601    0.000000    0.007285   -3.328934   -0.125330     0.0000    0.0000    0.4625   237.1422
   15.4320     2.0037    -0.715    0.595689    0.000000    0.007431   -3.432155   -0.125202     0.0000    0.0000    0.4618   209.8861
   15.5867     1.9624    -0.730    0.596589    0.000000    0.007605   -3.536304   -0.125054     0.0000    0.0000    0.4612   185.1021
   15.7374     1.9222    -0.748    0.597278    0.000000    0.007802   -3.641053   -0.124878     0.0000    0.0000    0.4606   162.6300
   15.8843     1.8830    -0.770    0.597737    0.000000    0.008034   -3.746090   -0.124676     0.0000    0.0000    0.4601   142.3155
   16.0273     1.8449    -0.795    0.597938    0.000000    0.008300   -3.851008   -0.124439     0.0000    0.0000    0.4596   124.0101
   16.1663     1.8078    -0.824    0.597853    0.000000    0.008603   -3.955345   -0.124165     0.0000    0.0000    0.4592   107.5711
   16.3013     1.7718    -0.858    0.597447    0.000000    0.008947   -4.058560   -0.123844     0.0000    0.0000    0.4588   92.8616
   16.4323     1.7369    -0.896    0.596683    0.000000    0.009334   -4.160044   -0.123472     0.0000    0.0000    0.4584   79.7507
   16.5592     1.7030    -0.940    0.595521    0.000000    0.009773   -4.259101   -0.123039     0.0000    0.0000    0.4581   68.1129
   16.6821     1.6702    -0.990    0.593910    0.000000    0.010263   -4.354924   -0.122533     0.0000    0.0000    0.4578   57.8287
   16.8008     1.6386    -1.046    0.591796    0.000000    0.010809   -4.446608   -0.121943     0.0000    0.0000    0.4576   48.7841
   16.9154     1.6080    -1.110    0.589118    0.000000    0.011415   -4.533116   -0.121254     0.0000    0.0000    0.4574   40.8710
   17.0258     1.5785    -1.181    0.585806    0.000000    0.012082   -4.613288   -0.120450     0.0000    0.0000    0.4572   33.9863
   17.1321     1.5502    -1.262    0.581784    0.000000    0.012813   -4.685808   -0.119510     0.0000    0.0000    0.4571   28.0330
   17.2340     1.5230    -1.351    0.576966    0.000000    0.013609   -4.749242   -0.118412     0.0000    0.0000    0.4570   22.9191
   17.3318     1.4969    -1.451    0.571255    0.000000    0.014467   -4.801965   -0.117131     0.0000    0.0000    0.4570   18.5579
   17.4252     1.4720    -1.561    0.564548    0.000000    0.015385   -4.842196   -0.115637     0.0000    0.0000    0.4569   14.8683
   17.5144     1.4482    -1.683    0.556730    0.000000    0.016356   -4.868018   -0.113897     0.0000    0.0000    0.4568   11.7741
   17.5993     1.4256    -1.816    0.547676    0.000000    0.017365   -4.877349   -0.111876     0.0000    0.0000    0.4567    9.2042
   17.6798     1.4041    -1.962    0.537260    0.000000    0.018406   -4.868062   -0.109542     0.0000    0.0000    0.4566    7.0928
   17.7559     1.3838    -2.120    0.525344    0.000000    0.019452   -4.837879   -0.106853     0.0000    0.0000    0.4564    5.3788
   17.8277     1.3647    -2.291    0.511790    0.000000    0.020480   -4.784597   -0.103775     0.0000    0.0000    0.4561    4.0061
   17.8950     1.3467    -2.475    0.496461    0.000000    0.021460   -4.706095   -0.100276     0.0000    0.0000    0.4557    2.9235
   17.9580     1.3299    -2.671    0.479229    0.000000    0.022361   -4.600497   -0.096332     0.0000    0.0000    0.4552    2.0843
   18.0165     1.3143    -2.880    0.459975    0.000000    0.023145   -4.466353   -0.091927     0.0000    0.0000    0.4545    1.4466
   18.0705     1.2999    -3.103    0.438594    0.000000    0.023779   -4.302765   -0.087059     0.0000    0.0000    0.4536    0.9732
   18.1201     1.2866    -3.340    0.415005    0.000000    0.024223   -4.109737   -0.081743     0.0000    0.0000    0.4525    0.6310
   18.1653     1.2746    -3.594    0.389151    0.000000    0.024444   -3.888559   -0.076022     0.0000    0.0000    0.4512    0.3915
   18.2059     1.2638    -3.868    0.361003    0.000000    0.024409   -3.642229   -0.069967     0.0000    0.0000    0.4496    0.2302
   18.2421     1.2541    -4.169    0.330568    0.000000    0.024097   -3.376948   -0.063716     0.0000    0.0000    0.4478    0.1266
   18.2738     1.2457    -4.509    0.297887    0.000000    0.023491   -3.104182   -0.057510     0.0000    0.0000    0.4459    0.0639
   18.3009     1.2384    -4.910    0.263047    0.000000    0.022597   -2.841564   -0.051706     0.0000    0.0000    0.4440    0.0288
   18.3236     1.2324    -5.425    0.226191    0.000000    0.021481   -2.607598   -0.046664     0.0000    0.0000    0.4425    0.0111
   18.3417     1.2276    -6.197    0.187531    0.000000    0.020363   -2.425172   -0.042694     0.0000    0.0000    0.4413    0.0033
   18.3553     1.2239    -7.499    0.147306    0.000000    0.019392   -2.353546   -0.040353     0.0000    0.0000    0.4381    0.0007
   18.3643     1.2215   -10.461    0.106248    0.000000    0.019619   -2.554344   -0.042091     0.0000    0.0000    0.4323    0.0001
   18.3689     1.2203   -45.835    0.071272    0.000000    0.073384   -2.676408   -0.036409     0.0000    0.0000    0.4014    0.0000


Main Wing Cp Coefficients
 Panel     CtrlPt.x        CtrlPt.y        CtrlPt.z       Nx      Ny       Nz        Area       Cp
Main WingCp Coefficients
Strip 1
  13       1.401e+01      -1.836e+01       4.106e-01          -0.028          -0.034          -0.999       4.020e-05         -6.1028
  14       1.398e+01      -1.836e+01       4.131e-01          -0.087          -0.060          -0.994       1.187e-04         -2.0775
  15       1.391e+01      -1.836e+01       4.185e-01          -0.075          -0.054          -0.996       1.900e-04         -0.7964
  16       1.381e+01      -1.836e+01       4.248e-01          -0.057          -0.046          -0.997       2.500e-04         -0.3797
  17       1.369e+01      -1.836e+01       4.301e-01          -0.034          -0.035          -0.999       2.953e-04         -0.1948
  18       1.355e+01      -1.836e+01       4.330e-01          -0.009          -0.022          -1.000       3.236e-04         -0.0952
  19       1.341e+01      -1.836e+01       4.327e-01           0.014          -0.010          -1.000       3.334e-04         -0.0370
  20       1.326e+01      -1.836e+01       4.288e-01           0.040           0.006          -0.999       3.240e-04          0.0015
  21       1.313e+01      -1.836e+01       4.204e-01           0.085           0.033          -0.996       2.967e-04          0.0210
  22       1.301e+01      -1.836e+01       4.088e-01           0.108           0.048          -0.993       2.516e-04          0.0041
  23       1.291e+01      -1.836e+01       3.991e-01           0.088           0.035          -0.996       1.904e-04         -0.0557
  24       1.284e+01      -1.836e+01       3.962e-01          -0.032          -0.048          -0.998       1.183e-04         -0.2211
  25       1.281e+01      -1.836e+01       4.037e-01          -0.553          -0.402          -0.730       5.440e-05         -0.4388
  26       1.281e+01      -1.836e+01       4.222e-01          -0.699          -0.476           0.534       7.683e-05         -0.7682
  27       1.284e+01      -1.836e+01       4.491e-01          -0.472          -0.313           0.824       1.447e-04         -0.5810
  28       1.291e+01      -1.836e+01       4.798e-01          -0.339          -0.222           0.914       2.083e-04         -0.4343
  29       1.301e+01      -1.836e+01       5.083e-01          -0.225          -0.146           0.963       2.598e-04         -0.3498
  30       1.313e+01      -1.836e+01       5.284e-01          -0.109          -0.071           0.992       2.980e-04         -0.3142
  31       1.326e+01      -1.836e+01       5.351e-01           0.006          -0.001           1.000       3.235e-04         -0.3052
  32       1.341e+01      -1.836e+01       5.288e-01           0.080           0.042           0.996       3.342e-04         -0.3019
  33       1.355e+01      -1.836e+01       5.131e-01           0.135           0.072           0.988       3.269e-04         -0.3284
  34       1.369e+01      -1.836e+01       4.912e-01           0.183           0.096           0.978       3.009e-04         -0.3881
  35       1.381e+01      -1.836e+01       4.665e-01           0.222           0.115           0.968       2.570e-04         -0.5062
  36       1.391e+01      -1.836e+01       4.429e-01           0.254           0.130           0.959       1.970e-04         -0.8091
  37       1.398e+01      -1.836e+01       4.244e-01           0.276           0.139           0.951       1.239e-04         -1.9270
  38       1.401e+01      -1.836e+01       4.136e-01           0.340           0.167           0.925       4.326e-05         -7.3582
Strip 2
  39       1.401e+01      -1.836e+01       4.105e-01          -0.028          -0.034          -0.999       1.207e-04         -3.4831
  40       1.397e+01      -1.836e+01       4.130e-01          -0.087          -0.060          -0.994       3.565e-04         -1.5449
  41       1.391e+01      -1.836e+01       4.184e-01          -0.075          -0.054          -0.996       5.705e-04         -0.6947
  42       1.381e+01      -1.836e+01       4.247e-01          -0.057          -0.046          -0.997       7.506e-04         -0.3476
  43       1.369e+01      -1.836e+01       4.301e-01          -0.034          -0.035          -0.999       8.868e-04         -0.1807
  44       1.355e+01      -1.836e+01       4.329e-01          -0.009          -0.022          -1.000       9.718e-04         -0.0886
  45       1.341e+01      -1.836e+01       4.326e-01           0.014          -0.010          -1.000       1.001e-03         -0.0337
  46       1.326e+01      -1.836e+01       4.287e-01           0.040           0.006          -0.999       9.729e-04          0.0038
  47       1.313e+01      -1.836e+01       4.203e-01           0.085           0.033          -0.996       8.909e-04          0.0226
  48       1.300e+01      -1.836e+01       4.087e-01           0.108           0.048          -0.993       7.555e-04          0.0024
  49       1.291e+01      -1.836e+01       3.990e-01           0.088           0.035          -0.996       5.718e-04         -0.0708
  50       1.284e+01      -1.836e+01       3.961e-01          -0.032          -0.048          -0.998       3.553e-04         -0.2831
  51       1.280e+01      -1.836e+01       4.036e-01          -0.553          -0.402          -0.730       1.633e-04         -0.2108
  52       1.280e+01      -1.836e+01       4.221e-01          -0.699          -0.476           0.534       2.307e-04         -0.3167
  53       1.284e+01      -1.836e+01       4.490e-01          -0.472          -0.313           0.824       4.345e-04         -0.4349
  54       1.291e+01      -1.836e+01       4.798e-01          -0.339          -0.222           0.914       6.253e-04         -0.3805
  55       1.300e+01      -1.836e+01       5.083e-01          -0.225          -0.146           0.963       7.802e-04         -0.3458
  56       1.313e+01      -1.836e+01       5.284e-01          -0.109          -0.071           0.992       8.949e-04         -0.3335
  57       1.326e+01      -1.836e+01       5.351e-01           0.006          -0.001           1.000       9.714e-04         -0.3201
  58       1.341e+01      -1.836e+01       5.288e-01           0.080           0.042           0.996       1.004e-03         -0.3003
  59       1.355e+01      -1.836e+01       5.131e-01           0.135           0.072           0.988       9.815e-04         -0.3092
  60       1.369e+01      -1.836e+01       4.912e-01           0.183           0.096           0.978       9.036e-04         -0.3500
  61       1.381e+01      -1.836e+01       4.665e-01           0.222           0.115           0.968       7.717e-04         -0.4499
  62       1.391e+01      -1.836e+01       4.428e-01           0.254           0.130           0.959       5.914e-04         -0.7289
  63       1.397e+01      -1.836e+01       4.243e-01           0.276           0.139           0.951       3.720e-04         -1.6582
  64       1.401e+01      -1.836e+01       4.135e-01           0.340           0.167           0.925       1.299e-04         -4.3521
Strip 3
  65       1.400e+01      -1.835e+01       4.103e-01          -0.028          -0.034          -0.999       2.015e-04         -1.1359
  66       1.397e+01      -1.835e+01       4.128e-01          -0.087          -0.060          -0.994       5.953e-04         -0.8678
  67       1.390e+01      -1.835e+01       4.182e-01          -0.075          -0.054          -0.996       9.525e-04         -0.5166
  68       1.380e+01      -1.835e+01       4.245e-01          -0.057          -0.046          -0.997       1.253e-03         -0.2869
  69       1.368e+01      -1.835e+01       4.299e-01          -0.034          -0.035          -0.999       1.481e-03         -0.1543
  70       1.355e+01      -1.835e+01       4.328e-01          -0.009          -0.022          -1.000       1.623e-03         -0.0759
  71       1.340e+01      -1.835e+01       4.324e-01           0.014          -0.010          -1.000       1.671e-03         -0.0268
  72       1.326e+01      -1.835e+01       4.286e-01           0.040           0.006          -0.999       1.624e-03          0.0086
  73       1.312e+01      -1.835e+01       4.201e-01           0.085           0.033          -0.996       1.487e-03          0.0249
  74       1.300e+01      -1.835e+01       4.085e-01           0.108           0.048          -0.993       1.261e-03         -0.0007
  75       1.290e+01      -1.835e+01       3.987e-01           0.088           0.035          -0.996       9.547e-04         -0.0901
  76       1.283e+01      -1.835e+01       3.959e-01          -0.032          -0.048          -0.998       5.932e-04         -0.3351
  77       1.280e+01      -1.835e+01       4.034e-01          -0.553          -0.402          -0.730       2.727e-04         -0.0160
  78       1.280e+01      -1.835e+01       4.219e-01          -0.699          -0.476           0.534       3.852e-04          0.1430
  79       1.283e+01      -1.835e+01       4.489e-01          -0.472          -0.313           0.824       7.255e-04         -0.2706
  80       1.290e+01      -1.835e+01       4.797e-01          -0.339          -0.222           0.914       1.044e-03         -0.3331
  81       1.300e+01      -1.835e+01       5.083e-01          -0.225          -0.146           0.963       1.303e-03         -0.3553
  82       1.312e+01      -1.835e+01       5.284e-01          -0.109          -0.071           0.992       1.494e-03         -0.3668
  83       1.326e+01      -1.835e+01       5.352e-01           0.006          -0.001           1.000       1.622e-03         -0.3443
  84       1.340e+01      -1.835e+01       5.288e-01           0.080           0.042           0.996       1.676e-03         -0.3024
  85       1.355e+01      -1.835e+01       5.131e-01           0.135           0.072           0.988       1.639e-03         -0.2884
  86       1.368e+01      -1.835e+01       4.912e-01           0.183           0.096           0.978       1.509e-03         -0.3047
  87       1.380e+01      -1.835e+01       4.664e-01           0.222           0.115           0.968       1.289e-03         -0.3756
  88       1.390e+01      -1.835e+01       4.427e-01           0.254           0.130           0.959       9.875e-04         -0.5770
  89       1.397e+01      -1.835e+01       4.241e-01           0.276           0.139           0.951       6.212e-04         -1.0196
  90       1.400e+01      -1.835e+01       4.133e-01           0.340           0.167           0.925       2.169e-04         -1.3701
Strip 4
  91       1.400e+01      -1.834e+01       4.100e-01          -0.028          -0.034          -0.999       2.829e-04         -0.4508
  92       1.396e+01      -1.834e+01       4.125e-01          -0.087          -0.060          -0.994       8.357e-04         -0.4182
  93       1.390e+01      -1.834e+01       4.180e-01          -0.075          -0.054          -0.996       1.337e-03         -0.3201
  94       1.380e+01      -1.834e+01       4.243e-01          -0.057          -0.046          -0.997       1.759e-03         -0.2064
  95       1.368e+01      -1.834e+01       4.296e-01          -0.034          -0.035          -0.999       2.079e-03         -0.1175
  96       1.354e+01      -1.834e+01       4.325e-01          -0.009          -0.022          -1.000       2.278e-03         -0.0564
  97       1.339e+01      -1.834e+01       4.322e-01           0.014          -0.010          -1.000       2.346e-03         -0.0147
  98       1.325e+01      -1.834e+01       4.283e-01           0.040           0.006          -0.999       2.280e-03          0.0178
  99       1.311e+01      -1.834e+01       4.198e-01           0.085           0.033          -0.996       2.088e-03          0.0305
 100       1.299e+01      -1.834e+01       4.082e-01           0.108           0.048          -0.993       1.771e-03         -0.0025
 101       1.289e+01      -1.834e+01       3.984e-01           0.088           0.035          -0.996       1.340e-03         -0.1082
 102       1.282e+01      -1.834e+01       3.955e-01          -0.032          -0.048          -0.998       8.327e-04         -0.3678
 103       1.279e+01      -1.834e+01       4.030e-01          -0.553          -0.402          -0.730       3.829e-04          0.0208
 104       1.279e+01      -1.834e+01       4.216e-01          -0.699          -0.476           0.534       5.407e-04          0.3135
 105       1.282e+01      -1.834e+01       4.487e-01          -0.472          -0.313           0.824       1.018e-03         -0.1925
 106       1.289e+01      -1.834e+01       4.796e-01          -0.339          -0.222           0.914       1.466e-03         -0.3292
 107       1.299e+01      -1.833e+01       5.083e-01          -0.225          -0.146           0.963       1.829e-03         -0.3835
 108       1.311e+01      -1.833e+01       5.285e-01          -0.109          -0.071           0.992       2.098e-03         -0.4057
 109       1.325e+01      -1.833e+01       5.352e-01           0.006          -0.001           1.000       2.277e-03         -0.3736
 110       1.339e+01      -1.833e+01       5.289e-01           0.080           0.042           0.996       2.352e-03         -0.3155
 111       1.354e+01      -1.833e+01       5.131e-01           0.135           0.072           0.988       2.301e-03         -0.2857
 112       1.368e+01      -1.834e+01       4.911e-01           0.183           0.096           0.978       2.118e-03         -0.2824
 113       1.380e+01      -1.834e+01       4.662e-01           0.222           0.115           0.968       1.809e-03         -0.3146
 114       1.390e+01      -1.834e+01       4.425e-01           0.254           0.130           0.959       1.386e-03         -0.3939
 115       1.396e+01      -1.834e+01       4.238e-01           0.276           0.139           0.951       8.720e-04         -0.5051
 116       1.400e+01      -1.834e+01       4.130e-01           0.340           0.167           0.925       3.044e-04         -0.4978
Strip 5
 117       1.399e+01      -1.832e+01       4.096e-01          -0.028          -0.034          -0.999       3.651e-04         -0.1931
 118       1.396e+01      -1.832e+01       4.121e-01          -0.087          -0.060          -0.994       1.078e-03         -0.1919
 119       1.389e+01      -1.832e+01       4.176e-01          -0.075          -0.054          -0.996       1.725e-03         -0.1709
 120       1.379e+01      -1.832e+01       4.239e-01          -0.057          -0.046          -0.997       2.270e-03         -0.1243
 121       1.367e+01      -1.832e+01       4.293e-01          -0.034          -0.035          -0.999       2.682e-03         -0.0735
 122       1.353e+01      -1.832e+01       4.322e-01          -0.009          -0.022          -1.000       2.939e-03         -0.0312
 123       1.338e+01      -1.832e+01       4.319e-01           0.014          -0.010          -1.000       3.027e-03          0.0018
 124       1.324e+01      -1.832e+01       4.280e-01           0.040           0.006          -0.999       2.943e-03          0.0301
 125       1.310e+01      -1.832e+01       4.194e-01           0.085           0.033          -0.996       2.694e-03          0.0376
 126       1.298e+01      -1.832e+01       4.077e-01           0.108           0.048          -0.993       2.285e-03         -0.0046
 127       1.288e+01      -1.832e+01       3.980e-01           0.088           0.035          -0.996       1.729e-03         -0.1232
 128       1.281e+01      -1.832e+01       3.951e-01          -0.032          -0.048          -0.998       1.075e-03         -0.3793
 129       1.278e+01      -1.832e+01       4.026e-01          -0.553          -0.402          -0.730       4.940e-04          0.0317
 130       1.278e+01      -1.832e+01       4.213e-01          -0.699          -0.476           0.534       6.977e-04          0.3888
 131       1.281e+01      -1.832e+01       4.485e-01          -0.472          -0.313           0.824       1.314e-03         -0.1496
 132       1.288e+01      -1.832e+01       4.795e-01          -0.339          -0.222           0.914       1.891e-03         -0.3396
 133       1.298e+01      -1.832e+01       5.083e-01          -0.225          -0.146           0.963       2.359e-03         -0.4183
 134       1.310e+01      -1.832e+01       5.285e-01          -0.109          -0.071           0.992       2.706e-03         -0.4459
 135       1.324e+01      -1.832e+01       5.353e-01           0.006          -0.001           1.000       2.938e-03         -0.4043
 136       1.338e+01      -1.832e+01       5.289e-01           0.080           0.042           0.996       3.035e-03         -0.3317
 137       1.353e+01      -1.832e+01       5.131e-01           0.135           0.072           0.988       2.969e-03         -0.2868
 138       1.367e+01      -1.832e+01       4.910e-01           0.183           0.096           0.978       2.733e-03         -0.2613
 139       1.379e+01      -1.832e+01       4.661e-01           0.222           0.115           0.968       2.334e-03         -0.2503
 140       1.389e+01      -1.832e+01       4.422e-01           0.254           0.130           0.959       1.789e-03         -0.2465
 141       1.396e+01      -1.832e+01       4.235e-01           0.276           0.139           0.951       1.125e-03         -0.2425
 142       1.399e+01      -1.832e+01       4.126e-01           0.340           0.167           0.925       3.928e-04         -0.1731
Strip 6
 143       1.398e+01      -1.830e+01       4.091e-01          -0.028          -0.034          -0.999       4.482e-04         -0.0677
 144       1.395e+01      -1.830e+01       4.116e-01          -0.087          -0.060          -0.994       1.324e-03         -0.0718
 145       1.388e+01      -1.830e+01       4.171e-01          -0.075          -0.054          -0.996       2.118e-03         -0.0740
 146       1.378e+01      -1.830e+01       4.235e-01          -0.057          -0.046          -0.997       2.787e-03         -0.0572
 147       1.366e+01      -1.830e+01       4.289e-01          -0.034          -0.035          -0.999       3.293e-03         -0.0305
 148       1.352e+01      -1.830e+01       4.318e-01          -0.009          -0.022          -1.000       3.608e-03         -0.0037
 149       1.337e+01      -1.830e+01       4.315e-01           0.014          -0.010          -1.000       3.717e-03          0.0206
 150       1.322e+01      -1.830e+01       4.276e-01           0.040           0.006          -0.999       3.613e-03          0.0437
 151       1.309e+01      -1.830e+01       4.190e-01           0.085           0.033          -0.996       3.308e-03          0.0450
 152       1.296e+01      -1.830e+01       4.072e-01           0.108           0.048          -0.993       2.805e-03         -0.0059
 153       1.287e+01      -1.830e+01       3.974e-01           0.088           0.035          -0.996       2.123e-03         -0.1294
 154       1.280e+01      -1.830e+01       3.945e-01          -0.032          -0.048          -0.998       1.319e-03         -0.3769
 155       1.276e+01      -1.830e+01       4.021e-01          -0.553          -0.402          -0.730       6.066e-04          0.0410
 156       1.276e+01      -1.830e+01       4.208e-01          -0.699          -0.476           0.534       8.565e-04          0.4278
 157       1.280e+01      -1.830e+01       4.482e-01          -0.472          -0.313           0.824       1.613e-03         -0.1234
 158       1.287e+01      -1.829e+01       4.793e-01          -0.340          -0.222           0.914       2.322e-03         -0.3515
 159       1.296e+01      -1.829e+01       5.083e-01          -0.225          -0.146           0.963       2.897e-03         -0.4535
 160       1.309e+01      -1.829e+01       5.286e-01          -0.109          -0.071           0.992       3.323e-03         -0.4854
 161       1.322e+01      -1.829e+01       5.354e-01           0.006          -0.001           1.000       3.607e-03         -0.4350
 162       1.337e+01      -1.829e+01       5.290e-01           0.080           0.042           0.996       3.727e-03         -0.3487
 163       1.352e+01      -1.829e+01       5.131e-01           0.135           0.072           0.988       3.645e-03         -0.2883
 164       1.366e+01      -1.829e+01       4.909e-01           0.183           0.096           0.978       3.355e-03         -0.2422
 165       1.378e+01      -1.830e+01       4.658e-01           0.222           0.115           0.968       2.866e-03         -0.2007
 166       1.388e+01      -1.830e+01       4.419e-01           0.254           0.130           0.959       2.196e-03         -0.1577
 167       1.395e+01      -1.830e+01       4.230e-01           0.276           0.139           0.951       1.381e-03         -0.1090
 168       1.398e+01      -1.830e+01       4.121e-01           0.340           0.167           0.925       4.823e-04         -0.0226
Strip 7
 169       1.397e+01      -1.827e+01       4.085e-01          -0.028          -0.034          -0.999       5.325e-04          0.0036
 170       1.393e+01      -1.827e+01       4.110e-01          -0.087          -0.060          -0.994       1.573e-03         -0.0015
 171       1.386e+01      -1.827e+01       4.166e-01          -0.075          -0.054          -0.996       2.517e-03         -0.0109
 172       1.377e+01      -1.827e+01       4.230e-01          -0.057          -0.046          -0.997       3.311e-03         -0.0070
 173       1.364e+01      -1.827e+01       4.284e-01          -0.034          -0.035          -0.999       3.912e-03          0.0063
 174       1.350e+01      -1.827e+01       4.314e-01          -0.009          -0.022          -1.000       4.287e-03          0.0226
 175       1.336e+01      -1.827e+01       4.310e-01           0.014          -0.010          -1.000       4.416e-03          0.0398
 176       1.321e+01      -1.827e+01       4.271e-01           0.040           0.006          -0.999       4.292e-03          0.0578
 177       1.307e+01      -1.827e+01       4.184e-01           0.085           0.033          -0.996       3.930e-03          0.0531
 178       1.295e+01      -1.827e+01       4.066e-01           0.108           0.048          -0.993       3.333e-03         -0.0042
 179       1.285e+01      -1.827e+01       3.967e-01           0.088           0.035          -0.996       2.523e-03         -0.1278
 180       1.278e+01      -1.827e+01       3.938e-01          -0.032          -0.048          -0.998       1.567e-03         -0.3676
 181       1.274e+01      -1.827e+01       4.014e-01          -0.553          -0.402          -0.730       7.207e-04          0.0521
 182       1.274e+01      -1.827e+01       4.203e-01          -0.699          -0.476           0.534       1.018e-03          0.4488
 183       1.278e+01      -1.827e+01       4.478e-01          -0.472          -0.313           0.824       1.917e-03         -0.1077
 184       1.285e+01      -1.827e+01       4.791e-01          -0.340          -0.222           0.914       2.758e-03         -0.3613
 185       1.295e+01      -1.827e+01       5.082e-01          -0.225          -0.146           0.963       3.442e-03         -0.4857
 186       1.307e+01      -1.827e+01       5.287e-01          -0.109          -0.071           0.992       3.948e-03         -0.5234
 187       1.321e+01      -1.827e+01       5.356e-01           0.006          -0.001           1.000       4.286e-03         -0.4660
 188       1.336e+01      -1.827e+01       5.291e-01           0.080           0.042           0.996       4.428e-03         -0.3672
 189       1.350e+01      -1.827e+01       5.131e-01           0.135           0.072           0.988       4.330e-03         -0.2929
 190       1.364e+01      -1.827e+01       4.908e-01           0.183           0.096           0.978       3.987e-03         -0.2309
 191       1.377e+01      -1.827e+01       4.656e-01           0.222           0.115           0.968       3.405e-03         -0.1712
 192       1.386e+01      -1.827e+01       4.415e-01           0.254           0.130           0.959       2.609e-03         -0.1075
 193       1.393e+01      -1.827e+01       4.225e-01           0.276           0.139           0.951       1.641e-03         -0.0366
 194       1.397e+01      -1.827e+01       4.115e-01           0.340           0.167           0.925       5.731e-04          0.0567
Strip 8
 195       1.396e+01      -1.824e+01       4.078e-01          -0.028          -0.034          -0.999       6.183e-04          0.0476
 196       1.392e+01      -1.824e+01       4.103e-01          -0.087          -0.060          -0.994       1.826e-03          0.0432
 197       1.385e+01      -1.824e+01       4.159e-01          -0.075          -0.054          -0.996       2.922e-03          0.0320
 198       1.375e+01      -1.824e+01       4.224e-01          -0.057          -0.046          -0.997       3.845e-03          0.0302
 199       1.363e+01      -1.824e+01       4.279e-01          -0.034          -0.035          -0.999       4.542e-03          0.0364
 200       1.349e+01      -1.824e+01       4.308e-01          -0.009          -0.022          -1.000       4.977e-03          0.0461
 201       1.334e+01      -1.824e+01       4.305e-01           0.014          -0.010          -1.000       5.127e-03          0.0581
 202       1.319e+01      -1.824e+01       4.265e-01           0.040           0.006          -0.999       4.983e-03          0.0717
 203       1.305e+01      -1.824e+01       4.178e-01           0.085           0.033          -0.996       4.563e-03          0.0619
 204       1.293e+01      -1.824e+01       4.059e-01           0.108           0.048          -0.993       3.870e-03          0.0003
 205       1.283e+01      -1.824e+01       3.959e-01           0.088           0.035          -0.996       2.929e-03         -0.1215
 206       1.276e+01      -1.824e+01       3.930e-01          -0.032          -0.048          -0.998       1.820e-03         -0.3548
 207       1.272e+01      -1.824e+01       4.007e-01          -0.553          -0.402          -0.730       8.368e-04          0.0650
 208       1.272e+01      -1.824e+01       4.197e-01          -0.699          -0.476           0.533       1.181e-03          0.4595
 209       1.276e+01      -1.824e+01       4.474e-01          -0.472          -0.313           0.824       2.225e-03         -0.0997
 210       1.283e+01      -1.824e+01       4.789e-01          -0.340          -0.222           0.914       3.202e-03         -0.3695
 211       1.293e+01      -1.824e+01       5.082e-01          -0.225          -0.146           0.963       3.996e-03         -0.5135
 212       1.305e+01      -1.823e+01       5.288e-01          -0.109          -0.071           0.992       4.583e-03         -0.5591
 213       1.319e+01      -1.823e+01       5.357e-01           0.006          -0.001           1.000       4.976e-03         -0.4972
 214       1.334e+01      -1.823e+01       5.292e-01           0.080           0.042           0.996       5.141e-03         -0.3880
 215       1.349e+01      -1.824e+01       5.131e-01           0.135           0.072           0.988       5.028e-03         -0.3021
 216       1.363e+01      -1.824e+01       4.906e-01           0.183           0.096           0.978       4.629e-03         -0.2283
 217       1.375e+01      -1.824e+01       4.652e-01           0.222           0.115           0.968       3.953e-03         -0.1564
 218       1.385e+01      -1.824e+01       4.410e-01           0.254           0.130           0.959       3.030e-03         -0.0794
 219       1.392e+01      -1.824e+01       4.219e-01           0.276           0.139           0.951       1.906e-03          0.0045
 220       1.396e+01      -1.824e+01       4.108e-01           0.340           0.167           0.925       6.653e-04          0.1017
Strip 9
 221       1.394e+01      -1.820e+01       4.069e-01          -0.028          -0.034          -0.999       7.056e-04          0.0764
 222       1.390e+01      -1.820e+01       4.096e-01          -0.087          -0.060          -0.994       2.084e-03          0.0733
 223       1.383e+01      -1.820e+01       4.152e-01          -0.075          -0.054          -0.996       3.335e-03          0.0626
 224       1.373e+01      -1.820e+01       4.217e-01          -0.057          -0.046          -0.997       4.388e-03          0.0585
 225       1.361e+01      -1.820e+01       4.272e-01          -0.034          -0.035          -0.999       5.184e-03          0.0608
 226       1.347e+01      -1.820e+01       4.302e-01          -0.009          -0.022          -1.000       5.681e-03          0.0664
 227       1.332e+01      -1.820e+01       4.298e-01           0.014          -0.010          -1.000       5.852e-03          0.0748
 228       1.317e+01      -1.820e+01       4.258e-01           0.040           0.006          -0.999       5.687e-03          0.0846
 229       1.303e+01      -1.820e+01       4.171e-01           0.085           0.033          -0.996       5.208e-03          0.0706
 230       1.290e+01      -1.820e+01       4.051e-01           0.108           0.048          -0.993       4.416e-03          0.0067
 231       1.280e+01      -1.820e+01       3.950e-01           0.088           0.035          -0.996       3.342e-03         -0.1129
 232       1.273e+01      -1.820e+01       3.921e-01          -0.032          -0.048          -0.998       2.077e-03         -0.3404
 233       1.269e+01      -1.820e+01       3.998e-01          -0.553          -0.402          -0.730       9.551e-04          0.0795
 234       1.269e+01      -1.820e+01       4.190e-01          -0.699          -0.476           0.533       1.348e-03          0.4639
 235       1.273e+01      -1.820e+01       4.469e-01          -0.472          -0.313           0.824       2.539e-03         -0.0972
 236       1.280e+01      -1.820e+01       4.786e-01          -0.340          -0.222           0.914       3.655e-03         -0.3769
 237       1.290e+01      -1.820e+01       5.082e-01          -0.225          -0.146           0.963       4.560e-03         -0.5369
 238       1.303e+01      -1.820e+01       5.289e-01          -0.109          -0.071           0.992       5.231e-03         -0.5916
 239       1.317e+01      -1.820e+01       5.359e-01           0.006          -0.001           1.000       5.679e-03         -0.5277
 240       1.332e+01      -1.820e+01       5.294e-01           0.080           0.042           0.996       5.867e-03         -0.4104
 241       1.347e+01      -1.820e+01       5.131e-01           0.135           0.072           0.988       5.738e-03         -0.3150
 242       1.361e+01      -1.820e+01       4.905e-01           0.183           0.096           0.978       5.283e-03         -0.2320
 243       1.373e+01      -1.820e+01       4.649e-01           0.222           0.115           0.968       4.512e-03         -0.1508
 244       1.383e+01      -1.820e+01       4.404e-01           0.254           0.130           0.959       3.458e-03         -0.0642
 245       1.390e+01      -1.820e+01       4.212e-01           0.275           0.139           0.951       2.175e-03          0.0285
 246       1.394e+01      -1.820e+01       4.101e-01           0.340           0.167           0.925       7.594e-04          0.1283
Strip 10
 247       1.392e+01      -1.816e+01       4.060e-01          -0.028          -0.034          -0.999       7.948e-04          0.0960
 248       1.389e+01      -1.816e+01       4.087e-01          -0.087          -0.060          -0.994       2.348e-03          0.0947
 249       1.382e+01      -1.816e+01       4.143e-01          -0.075          -0.054          -0.996       3.757e-03          0.0854
 250       1.371e+01      -1.816e+01       4.209e-01          -0.057          -0.046          -0.997       4.943e-03          0.0805
 251       1.359e+01      -1.816e+01       4.265e-01          -0.034          -0.035          -0.999       5.839e-03          0.0808
 252       1.345e+01      -1.816e+01       4.295e-01          -0.009          -0.022          -1.000       6.399e-03          0.0838
 253       1.329e+01      -1.816e+01       4.291e-01           0.014          -0.010          -1.000       6.591e-03          0.0895
 254       1.314e+01      -1.816e+01       4.251e-01           0.040           0.006          -0.999       6.406e-03          0.0963
 255       1.300e+01      -1.816e+01       4.163e-01           0.085           0.033          -0.996       5.866e-03          0.0791
 256       1.288e+01      -1.816e+01       4.042e-01           0.108           0.048          -0.993       4.974e-03          0.0142
 257       1.277e+01      -1.816e+01       3.940e-01           0.088           0.035          -0.996       3.765e-03         -0.1031
 258       1.270e+01      -1.816e+01       3.910e-01          -0.032          -0.048          -0.998       2.339e-03         -0.3252
 259       1.267e+01      -1.816e+01       3.989e-01          -0.553          -0.402          -0.730       1.076e-03          0.0949
 260       1.267e+01      -1.816e+01       4.182e-01          -0.700          -0.476           0.533       1.519e-03          0.4643
 261       1.270e+01      -1.816e+01       4.463e-01          -0.472          -0.313           0.824       2.860e-03         -0.0986
 262       1.277e+01      -1.816e+01       4.783e-01          -0.340          -0.222           0.914       4.117e-03         -0.3842
 263       1.288e+01      -1.816e+01       5.081e-01          -0.225          -0.146           0.963       5.136e-03         -0.5564
 264       1.300e+01      -1.816e+01       5.291e-01          -0.109          -0.071           0.992       5.892e-03         -0.6204
 265       1.314e+01      -1.816e+01       5.361e-01           0.006          -0.001           1.000       6.397e-03         -0.5567
 266       1.329e+01      -1.816e+01       5.295e-01           0.080           0.042           0.996       6.609e-03         -0.4334
 267       1.345e+01      -1.816e+01       5.132e-01           0.135           0.072           0.988       6.463e-03         -0.3304
 268       1.359e+01      -1.816e+01       4.903e-01           0.183           0.096           0.978       5.951e-03         -0.2396
 269       1.371e+01      -1.816e+01       4.645e-01           0.222           0.115           0.968       5.082e-03         -0.1509
 270       1.382e+01      -1.816e+01       4.398e-01           0.254           0.130           0.959       3.895e-03         -0.0567
 271       1.389e+01      -1.816e+01       4.204e-01           0.275           0.139           0.951       2.450e-03          0.0426
 272       1.392e+01      -1.816e+01       4.092e-01           0.340           0.167           0.925       8.554e-04          0.1443
Strip 11
 273       1.390e+01      -1.812e+01       4.050e-01          -0.028          -0.034          -0.999       8.861e-04          0.1098
 274       1.387e+01      -1.812e+01       4.077e-01          -0.087          -0.060          -0.994       2.617e-03          0.1103
 275       1.379e+01      -1.812e+01       4.134e-01          -0.075          -0.054          -0.996       4.188e-03          0.1027
 276       1.369e+01      -1.812e+01       4.200e-01          -0.057          -0.046          -0.997       5.510e-03          0.0980
 277       1.357e+01      -1.812e+01       4.257e-01          -0.034          -0.035          -0.999       6.510e-03          0.0973
 278       1.342e+01      -1.812e+01       4.287e-01          -0.009          -0.022          -1.000       7.133e-03          0.0987
 279       1.327e+01      -1.812e+01       4.283e-01           0.014          -0.010          -1.000       7.348e-03          0.1023
 280       1.312e+01      -1.812e+01       4.243e-01           0.040           0.006          -0.999       7.141e-03          0.1066
 281       1.297e+01      -1.812e+01       4.153e-01           0.085           0.033          -0.996       6.539e-03          0.0873
 282       1.285e+01      -1.812e+01       4.031e-01           0.108           0.048          -0.993       5.545e-03          0.0222
 283       1.274e+01      -1.812e+01       3.929e-01           0.088           0.035          -0.996       4.197e-03         -0.0932
 284       1.267e+01      -1.812e+01       3.899e-01          -0.032          -0.048          -0.998       2.608e-03         -0.3098
 285       1.264e+01      -1.812e+01       3.978e-01          -0.553          -0.402          -0.730       1.199e-03          0.1107
 286       1.264e+01      -1.812e+01       4.173e-01          -0.700          -0.476           0.533       1.693e-03          0.4619
 287       1.267e+01      -1.811e+01       4.457e-01          -0.472          -0.313           0.824       3.188e-03         -0.1027
 288       1.274e+01      -1.811e+01       4.780e-01          -0.340          -0.222           0.914       4.589e-03         -0.3916
 289       1.285e+01      -1.811e+01       5.081e-01          -0.225          -0.146           0.963       5.726e-03         -0.5729
 290       1.297e+01      -1.811e+01       5.292e-01          -0.109          -0.071           0.992       6.568e-03         -0.6453
 291       1.312e+01      -1.811e+01       5.363e-01           0.006          -0.001           1.000       7.131e-03         -0.5834
 292       1.327e+01      -1.811e+01       5.297e-01           0.080           0.042           0.996       7.368e-03         -0.4561
 293       1.342e+01      -1.811e+01       5.132e-01           0.135           0.072           0.988       7.206e-03         -0.3469
 294       1.357e+01      -1.811e+01       4.901e-01           0.183           0.096           0.978       6.634e-03         -0.2497
 295       1.369e+01      -1.811e+01       4.640e-01           0.222           0.115           0.968       5.666e-03         -0.1545
 296       1.379e+01      -1.811e+01       4.391e-01           0.254           0.130           0.959       4.342e-03         -0.0541
 297       1.387e+01      -1.812e+01       4.196e-01           0.275           0.139           0.951       2.731e-03          0.0505
 298       1.390e+01      -1.812e+01       4.082e-01           0.340           0.167           0.925       9.536e-04          0.1538
Strip 12
 299       1.388e+01      -1.807e+01       4.039e-01          -0.028          -0.034          -0.999       9.796e-04          0.1196
 300       1.384e+01      -1.807e+01       4.066e-01          -0.087          -0.060          -0.994       2.893e-03          0.1220
 301       1.377e+01      -1.807e+01       4.124e-01          -0.075          -0.054          -0.996       4.630e-03          0.1164
 302       1.367e+01      -1.807e+01       4.191e-01          -0.057          -0.046          -0.997       6.091e-03          0.1122
 303       1.354e+01      -1.807e+01       4.248e-01          -0.034          -0.035          -0.999       7.196e-03          0.1112
 304       1.340e+01      -1.807e+01       4.278e-01          -0.009          -0.022          -1.000       7.886e-03          0.1115
 305       1.324e+01      -1.807e+01       4.275e-01           0.014          -0.010          -1.000       8.123e-03          0.1136
 306       1.309e+01      -1.807e+01       4.233e-01           0.040           0.006          -0.999       7.895e-03          0.1159
 307       1.294e+01      -1.807e+01       4.143e-01           0.085           0.033          -0.996       7.229e-03          0.0952
 308       1.281e+01      -1.807e+01       4.020e-01           0.108           0.048          -0.993       6.130e-03          0.0303
 309       1.271e+01      -1.807e+01       3.917e-01           0.088           0.035          -0.996       4.640e-03         -0.0834
 310       1.264e+01      -1.807e+01       3.886e-01          -0.032          -0.048          -0.998       2.883e-03         -0.2947
 311       1.260e+01      -1.807e+01       3.966e-01          -0.553          -0.402          -0.730       1.326e-03          0.1265
 312       1.260e+01      -1.807e+01       4.163e-01          -0.700          -0.476           0.533       1.871e-03          0.4579
 313       1.264e+01      -1.807e+01       4.450e-01          -0.473          -0.313           0.824       3.524e-03         -0.1084
 314       1.271e+01      -1.806e+01       4.777e-01          -0.340          -0.222           0.914       5.073e-03         -0.3993
 315       1.281e+01      -1.806e+01       5.080e-01          -0.225          -0.146           0.963       6.330e-03         -0.5870
 316       1.294e+01      -1.806e+01       5.294e-01          -0.109          -0.071           0.992       7.261e-03         -0.6668
 317       1.309e+01      -1.806e+01       5.366e-01           0.006          -0.001           1.000       7.883e-03         -0.6074
 318       1.324e+01      -1.806e+01       5.298e-01           0.080           0.042           0.996       8.145e-03         -0.4777
 319       1.340e+01      -1.806e+01       5.132e-01           0.135           0.072           0.988       7.966e-03         -0.3637
 320       1.354e+01      -1.806e+01       4.898e-01           0.183           0.096           0.978       7.334e-03         -0.2610
 321       1.367e+01      -1.806e+01       4.635e-01           0.222           0.115           0.968       6.263e-03         -0.1601
 322       1.377e+01      -1.807e+01       4.384e-01           0.254           0.130           0.959       4.800e-03         -0.0544
 323       1.384e+01      -1.807e+01       4.186e-01           0.275           0.139           0.951       3.020e-03          0.0545
 324       1.388e+01      -1.807e+01       4.071e-01           0.340           0.167           0.925       1.054e-03          0.1591
Strip 13
 325       1.386e+01      -1.801e+01       4.027e-01          -0.028          -0.034          -0.999       1.075e-03          0.1268
 326       1.382e+01      -1.801e+01       4.054e-01          -0.087          -0.060          -0.994       3.177e-03          0.1309
 327       1.375e+01      -1.801e+01       4.113e-01          -0.075          -0.054          -0.996       5.083e-03          0.1272
 328       1.364e+01      -1.801e+01       4.180e-01          -0.057          -0.046          -0.997       6.688e-03          0.1238
 329       1.351e+01      -1.801e+01       4.238e-01          -0.034          -0.035          -0.999       7.901e-03          0.1228
 330       1.337e+01      -1.801e+01       4.269e-01          -0.009          -0.022          -1.000       8.658e-03          0.1225
 331       1.321e+01      -1.801e+01       4.265e-01           0.014          -0.010          -1.000       8.918e-03          0.1234
 332       1.305e+01      -1.801e+01       4.224e-01           0.040           0.006          -0.999       8.668e-03          0.1243
 333       1.291e+01      -1.801e+01       4.133e-01           0.085           0.033          -0.996       7.937e-03          0.1028
 334       1.278e+01      -1.801e+01       4.008e-01           0.108           0.048          -0.993       6.730e-03          0.0382
 335       1.267e+01      -1.801e+01       3.903e-01           0.088           0.035          -0.996       5.094e-03         -0.0740
 336       1.260e+01      -1.801e+01       3.873e-01          -0.032          -0.048          -0.998       3.165e-03         -0.2803
 337       1.256e+01      -1.801e+01       3.953e-01          -0.553          -0.402          -0.730       1.456e-03          0.1417
 338       1.256e+01      -1.801e+01       4.152e-01          -0.700          -0.476           0.533       2.054e-03          0.4526
 339       1.260e+01      -1.801e+01       4.442e-01          -0.473          -0.313           0.824       3.869e-03         -0.1153
 340       1.267e+01      -1.801e+01       4.773e-01          -0.340          -0.222           0.914       5.569e-03         -0.4070
 341       1.278e+01      -1.801e+01       5.080e-01          -0.225          -0.146           0.963       6.949e-03         -0.5993
 342       1.291e+01      -1.801e+01       5.296e-01          -0.109          -0.071           0.992       7.972e-03         -0.6850
 343       1.305e+01      -1.801e+01       5.368e-01           0.006          -0.001           1.000       8.655e-03         -0.6286
 344       1.321e+01      -1.801e+01       5.300e-01           0.080           0.042           0.996       8.943e-03         -0.4976
 345       1.337e+01      -1.801e+01       5.132e-01           0.135           0.072           0.988       8.746e-03         -0.3801
 346       1.351e+01      -1.801e+01       4.896e-01           0.183           0.096           0.978       8.052e-03         -0.2727
 347       1.364e+01      -1.801e+01       4.630e-01           0.222           0.115           0.968       6.877e-03         -0.1669
 348       1.375e+01      -1.801e+01       4.375e-01           0.254           0.130           0.959       5.271e-03         -0.0566
 349       1.382e+01      -1.801e+01       4.176e-01           0.275           0.139           0.951       3.315e-03          0.0560
 350       1.386e+01      -1.801e+01       4.060e-01           0.340           0.167           0.925       1.158e-03          0.1617
Strip 14
 351       1.383e+01      -1.795e+01       4.014e-01          -0.028          -0.034          -0.999       1.174e-03          0.1319
 352       1.380e+01      -1.795e+01       4.042e-01          -0.087          -0.060          -0.994       3.468e-03          0.1378
 353       1.372e+01      -1.795e+01       4.101e-01          -0.075          -0.054          -0.996       5.549e-03          0.1360
 354       1.362e+01      -1.795e+01       4.169e-01          -0.057          -0.046          -0.997       7.301e-03          0.1334
 355       1.348e+01      -1.795e+01       4.227e-01          -0.034          -0.035          -0.999       8.625e-03          0.1327
 356       1.334e+01      -1.795e+01       4.259e-01          -0.009          -0.022          -1.000       9.452e-03          0.1320
 357       1.318e+01      -1.795e+01       4.255e-01           0.014          -0.010          -1.000       9.736e-03          0.1320
 358       1.302e+01      -1.795e+01       4.213e-01           0.040           0.006          -0.999       9.462e-03          0.1319
 359       1.287e+01      -1.795e+01       4.121e-01           0.085           0.033          -0.996       8.664e-03          0.1099
 360       1.274e+01      -1.795e+01       3.995e-01           0.108           0.048          -0.993       7.347e-03          0.0456
 361       1.263e+01      -1.795e+01       3.889e-01           0.088           0.035          -0.996       5.561e-03         -0.0653
 362       1.256e+01      -1.795e+01       3.858e-01          -0.032          -0.048          -0.998       3.456e-03         -0.2666
 363       1.252e+01      -1.795e+01       3.939e-01          -0.553          -0.401          -0.730       1.590e-03          0.1564
 364       1.252e+01      -1.795e+01       4.141e-01          -0.700          -0.476           0.533       2.242e-03          0.4468
 365       1.256e+01      -1.795e+01       4.434e-01          -0.473          -0.313           0.824       4.224e-03         -0.1225
 366       1.263e+01      -1.795e+01       4.769e-01          -0.340          -0.222           0.914       6.079e-03         -0.4147
 367       1.274e+01      -1.795e+01       5.079e-01          -0.226          -0.146           0.963       7.586e-03         -0.6103
 368       1.287e+01      -1.795e+01       5.298e-01          -0.109          -0.071           0.992       8.703e-03         -0.7006
 369       1.302e+01      -1.795e+01       5.371e-01           0.006          -0.001           1.000       9.448e-03         -0.6470
 370       1.318e+01      -1.795e+01       5.303e-01           0.080           0.042           0.996       9.763e-03         -0.5157
 371       1.334e+01      -1.795e+01       5.132e-01           0.135           0.072           0.988       9.548e-03         -0.3955
 372       1.348e+01      -1.795e+01       4.893e-01           0.183           0.096           0.978       8.791e-03         -0.2843
 373       1.362e+01      -1.795e+01       4.624e-01           0.222           0.115           0.968       7.508e-03         -0.1742
 374       1.372e+01      -1.795e+01       4.366e-01           0.253           0.130           0.959       5.754e-03         -0.0598
 375       1.380e+01      -1.795e+01       4.164e-01           0.275           0.139           0.951       3.619e-03          0.0559
 376       1.383e+01      -1.795e+01       4.047e-01           0.340           0.167           0.925       1.264e-03          0.1627
Strip 15
 377       1.381e+01      -1.789e+01       4.000e-01          -0.028          -0.034          -0.999       1.275e-03          0.1358
 378       1.377e+01      -1.789e+01       4.028e-01          -0.087          -0.060          -0.994       3.768e-03          0.1431
 379       1.369e+01      -1.789e+01       4.088e-01          -0.075          -0.054          -0.996       6.028e-03          0.1432
 380       1.359e+01      -1.789e+01       4.157e-01          -0.057          -0.046          -0.997       7.931e-03          0.1414
 381       1.345e+01      -1.789e+01       4.216e-01          -0.034          -0.035          -0.999       9.371e-03          0.1411
 382       1.330e+01      -1.789e+01       4.248e-01          -0.009          -0.022          -1.000       1.027e-02          0.1402
 383       1.314e+01      -1.789e+01       4.244e-01           0.014          -0.010          -1.000       1.058e-02          0.1396
 384       1.298e+01      -1.789e+01       4.201e-01           0.040           0.006          -0.999       1.028e-02          0.1389
 385       1.283e+01      -1.789e+01       4.108e-01           0.085           0.033          -0.996       9.412e-03          0.1166
 386       1.270e+01      -1.789e+01       3.980e-01           0.108           0.048          -0.993       7.982e-03          0.0525
 387       1.259e+01      -1.789e+01       3.873e-01           0.088           0.035          -0.996       6.041e-03         -0.0573
 388       1.252e+01      -1.789e+01       3.842e-01          -0.032          -0.048          -0.998       3.754e-03         -0.2538
 389       1.248e+01      -1.789e+01       3.924e-01          -0.553          -0.401          -0.730       1.727e-03          0.1700
 390       1.248e+01      -1.789e+01       4.128e-01          -0.700          -0.476           0.533       2.436e-03          0.4407
 391       1.252e+01      -1.789e+01       4.425e-01          -0.473          -0.313           0.824       4.588e-03         -0.1299
 392       1.259e+01      -1.789e+01       4.764e-01          -0.340          -0.222           0.914       6.604e-03         -0.4222
 393       1.270e+01      -1.789e+01       5.079e-01          -0.226          -0.146           0.963       8.241e-03         -0.6201
 394       1.283e+01      -1.789e+01       5.300e-01          -0.109          -0.071           0.992       9.454e-03         -0.7140
 395       1.298e+01      -1.789e+01       5.374e-01           0.006          -0.001           1.000       1.026e-02         -0.6629
 396       1.314e+01      -1.789e+01       5.305e-01           0.080           0.042           0.996       1.061e-02         -0.5317
 397       1.330e+01      -1.789e+01       5.132e-01           0.135           0.072           0.988       1.037e-02         -0.4097
 398       1.345e+01      -1.789e+01       4.890e-01           0.183           0.096           0.978       9.550e-03         -0.2953
 399       1.359e+01      -1.789e+01       4.617e-01           0.222           0.115           0.968       8.156e-03         -0.1816
 400       1.369e+01      -1.789e+01       4.357e-01           0.253           0.130           0.959       6.251e-03         -0.0637
 401       1.377e+01      -1.789e+01       4.152e-01           0.275           0.139           0.951       3.932e-03          0.0548
 402       1.381e+01      -1.789e+01       4.033e-01           0.340           0.167           0.925       1.373e-03          0.1625
Strip 16
 403       1.378e+01      -1.782e+01       3.985e-01          -0.028          -0.034          -0.999       1.380e-03          0.1386
 404       1.374e+01      -1.782e+01       4.013e-01          -0.087          -0.060          -0.994       4.076e-03          0.1474
[...]
5064       1.322e+01       1.830e+01       4.276e-01           0.040          -0.006          -0.999       3.613e-03          0.0437
5065       1.309e+01       1.830e+01       4.190e-01           0.085          -0.033          -0.996       3.308e-03          0.0450
5066       1.296e+01       1.830e+01       4.072e-01           0.108          -0.048          -0.993       2.805e-03         -0.0059
5067       1.287e+01       1.830e+01       3.974e-01           0.088          -0.035          -0.996       2.123e-03         -0.1294
5068       1.280e+01       1.830e+01       3.945e-01          -0.032           0.048          -0.998       1.319e-03         -0.3769
5069       1.276e+01       1.830e+01       4.021e-01          -0.553           0.402          -0.730       6.066e-04          0.0410
5070       1.276e+01       1.830e+01       4.208e-01          -0.699           0.476           0.534       8.565e-04          0.4278
5071       1.280e+01       1.830e+01       4.482e-01          -0.472           0.313           0.824       1.613e-03         -0.1234
5072       1.287e+01       1.829e+01       4.793e-01          -0.340           0.222           0.914       2.322e-03         -0.3515
5073       1.296e+01       1.829e+01       5.083e-01          -0.225           0.146           0.963       2.897e-03         -0.4535
5074       1.309e+01       1.829e+01       5.286e-01          -0.109           0.071           0.992       3.323e-03         -0.4854
5075       1.322e+01       1.829e+01       5.354e-01           0.006           0.001           1.000       3.607e-03         -0.4350
5076       1.337e+01       1.829e+01       5.290e-01           0.080          -0.042           0.996       3.727e-03         -0.3487
5077       1.352e+01       1.829e+01       5.131e-01           0.135          -0.072           0.988       3.645e-03         -0.2883
5078       1.366e+01       1.829e+01       4.909e-01           0.183          -0.096           0.978       3.355e-03         -0.2422
5079       1.378e+01       1.830e+01       4.658e-01           0.222          -0.115           0.968       2.866e-03         -0.2007
5080       1.388e+01       1.830e+01       4.419e-01           0.254          -0.130           0.959       2.196e-03         -0.1577
5081       1.395e+01       1.830e+01       4.230e-01           0.276          -0.139           0.951       1.381e-03         -0.1090
5082       1.398e+01       1.830e+01       4.121e-01           0.340          -0.167           0.925       4.823e-04         -0.0226
Strip 196
5083       1.399e+01       1.832e+01       4.096e-01          -0.028           0.034          -0.999       3.651e-04         -0.1931
5084       1.396e+01       1.832e+01       4.121e-01          -0.087           0.060          -0.994       1.078e-03         -0.1919
5085       1.389e+01       1.832e+01       4.176e-01          -0.075           0.054          -0.996       1.725e-03         -0.1709
5086       1.379e+01       1.832e+01       4.239e-01          -0.057           0.046          -0.997       2.270e-03         -0.1243
5087       1.367e+01       1.832e+01       4.293e-01          -0.034           0.035          -0.999       2.682e-03         -0.0735
5088       1.353e+01       1.832e+01       4.322e-01          -0.009           0.022          -1.000       2.939e-03         -0.0312
5089       1.338e+01       1.832e+01       4.319e-01           0.014           0.010          -1.000       3.027e-03          0.0018
5090       1.324e+01       1.832e+01       4.280e-01           0.040          -0.006          -0.999       2.943e-03          0.0301
5091       1.310e+01       1.832e+01       4.194e-01           0.085          -0.033          -0.996       2.694e-03          0.0376
5092       1.298e+01       1.832e+01       4.077e-01           0.108          -0.048          -0.993       2.285e-03         -0.0046
5093       1.288e+01       1.832e+01       3.980e-01           0.088          -0.035          -0.996       1.729e-03         -0.1232
5094       1.281e+01       1.832e+01       3.951e-01          -0.032           0.048          -0.998       1.075e-03         -0.3793
5095       1.278e+01       1.832e+01       4.026e-01          -0.553           0.402          -0.730       4.940e-04          0.0317
5096       1.278e+01       1.832e+01       4.213e-01          -0.699           0.476           0.534       6.977e-04          0.3888
5097       1.281e+01       1.832e+01       4.485e-01          -0.472           0.313           0.824       1.314e-03         -0.1496
5098       1.288e+01       1.832e+01       4.795e-01          -0.339           0.222           0.914       1.891e-03         -0.3396
5099       1.298e+01       1.832e+01       5.083e-01          -0.225           0.146           0.963       2.359e-03         -0.4183
5100       1.310e+01       1.832e+01       5.285e-01          -0.109           0.071           0.992       2.706e-03         -0.4459
5101       1.324e+01       1.832e+01       5.353e-01           0.006           0.001           1.000       2.938e-03         -0.4043
5102       1.338e+01       1.832e+01       5.289e-01           0.080          -0.042           0.996       3.035e-03         -0.3317
5103       1.353e+01       1.832e+01       5.131e-01           0.135          -0.072           0.988       2.969e-03         -0.2868
5104       1.367e+01       1.832e+01       4.910e-01           0.183          -0.096           0.978       2.733e-03         -0.2613
5105       1.379e+01       1.832e+01       4.661e-01           0.222          -0.115           0.968       2.334e-03         -0.2503
5106       1.389e+01       1.832e+01       4.422e-01           0.254          -0.130           0.959       1.789e-03         -0.2465
5107       1.396e+01       1.832e+01       4.235e-01           0.276          -0.139           0.951       1.125e-03         -0.2425
5108       1.399e+01       1.832e+01       4.126e-01           0.340          -0.167           0.925       3.928e-04         -0.1731
Strip 197
5109       1.400e+01       1.834e+01       4.100e-01          -0.028           0.034          -0.999       2.829e-04         -0.4508
5110       1.396e+01       1.834e+01       4.125e-01          -0.087           0.060          -0.994       8.357e-04         -0.4182
5111       1.390e+01       1.834e+01       4.180e-01          -0.075           0.054          -0.996       1.337e-03         -0.3201
5112       1.380e+01       1.834e+01       4.243e-01          -0.057           0.046          -0.997       1.759e-03         -0.2064
5113       1.368e+01       1.834e+01       4.296e-01          -0.034           0.035          -0.999       2.079e-03         -0.1175
5114       1.354e+01       1.834e+01       4.325e-01          -0.009           0.022          -1.000       2.278e-03         -0.0564
5115       1.339e+01       1.834e+01       4.322e-01           0.014           0.010          -1.000       2.346e-03         -0.0147
5116       1.325e+01       1.834e+01       4.283e-01           0.040          -0.006          -0.999       2.280e-03          0.0178
5117       1.311e+01       1.834e+01       4.198e-01           0.085          -0.033          -0.996       2.088e-03          0.0305
5118       1.299e+01       1.834e+01       4.082e-01           0.108          -0.048          -0.993       1.771e-03         -0.0025
5119       1.289e+01       1.834e+01       3.984e-01           0.088          -0.035          -0.996       1.340e-03         -0.1082
5120       1.282e+01       1.834e+01       3.955e-01          -0.032           0.048          -0.998       8.327e-04         -0.3678
5121       1.279e+01       1.834e+01       4.030e-01          -0.553           0.402          -0.730       3.829e-04          0.0208
5122       1.279e+01       1.834e+01       4.216e-01          -0.699           0.476           0.534       5.407e-04          0.3135
5123       1.282e+01       1.834e+01       4.487e-01          -0.472           0.313           0.824       1.018e-03         -0.1925
5124       1.289e+01       1.834e+01       4.796e-01          -0.339           0.222           0.914       1.466e-03         -0.3292
5125       1.299e+01       1.833e+01       5.083e-01          -0.225           0.146           0.963       1.829e-03         -0.3835
5126       1.311e+01       1.833e+01       5.285e-01          -0.109           0.071           0.992       2.098e-03         -0.4057
5127       1.325e+01       1.833e+01       5.352e-01           0.006           0.001           1.000       2.277e-03         -0.3736
5128       1.339e+01       1.833e+01       5.289e-01           0.080          -0.042           0.996       2.352e-03         -0.3155
5129       1.354e+01       1.833e+01       5.131e-01           0.135          -0.072           0.988       2.301e-03         -0.2857
5130       1.368e+01       1.834e+01       4.911e-01           0.183          -0.096           0.978       2.118e-03         -0.2824
5131       1.380e+01       1.834e+01       4.662e-01           0.222          -0.115           0.968       1.809e-03         -0.3146
5132       1.390e+01       1.834e+01       4.425e-01           0.254          -0.130           0.959       1.386e-03         -0.3939
5133       1.396e+01       1.834e+01       4.238e-01           0.276          -0.139           0.951       8.720e-04         -0.5051
5134       1.400e+01       1.834e+01       4.130e-01           0.340          -0.167           0.925       3.044e-04         -0.4978
Strip 198
5135       1.400e+01       1.835e+01       4.103e-01          -0.028           0.034          -0.999       2.015e-04         -1.1359
5136       1.397e+01       1.835e+01       4.128e-01          -0.087           0.060          -0.994       5.953e-04         -0.8678
5137       1.390e+01       1.835e+01       4.182e-01          -0.075           0.054          -0.996       9.525e-04         -0.5166
5138       1.380e+01       1.835e+01       4.245e-01          -0.057           0.046          -0.997       1.253e-03         -0.2869
5139       1.368e+01       1.835e+01       4.299e-01          -0.034           0.035          -0.999       1.481e-03         -0.1543
5140       1.355e+01       1.835e+01       4.328e-01          -0.009           0.022          -1.000       1.623e-03         -0.0759
5141       1.340e+01       1.835e+01       4.324e-01           0.014           0.010          -1.000       1.671e-03         -0.0268
5142       1.326e+01       1.835e+01       4.286e-01           0.040          -0.006          -0.999       1.624e-03          0.0086
5143       1.312e+01       1.835e+01       4.201e-01           0.085          -0.033          -0.996       1.487e-03          0.0249
5144       1.300e+01       1.835e+01       4.085e-01           0.108          -0.048          -0.993       1.261e-03         -0.0007
5145       1.290e+01       1.835e+01       3.987e-01           0.088          -0.035          -0.996       9.547e-04         -0.0901
5146       1.283e+01       1.835e+01       3.959e-01          -0.032           0.048          -0.998       5.932e-04         -0.3351
5147       1.280e+01       1.835e+01       4.034e-01          -0.553           0.402          -0.730       2.727e-04         -0.0160
5148       1.280e+01       1.835e+01       4.219e-01          -0.699           0.476           0.534       3.852e-04          0.1430
5149       1.283e+01       1.835e+01       4.489e-01          -0.472           0.313           0.824       7.255e-04         -0.2706
5150       1.290e+01       1.835e+01       4.797e-01          -0.339           0.222           0.914       1.044e-03         -0.3331
5151       1.300e+01       1.835e+01       5.083e-01          -0.225           0.146           0.963       1.303e-03         -0.3553
5152       1.312e+01       1.835e+01       5.284e-01          -0.109           0.071           0.992       1.494e-03         -0.3668
5153       1.326e+01       1.835e+01       5.352e-01           0.006           0.001           1.000       1.622e-03         -0.3443
5154       1.340e+01       1.835e+01       5.288e-01           0.080          -0.042           0.996       1.676e-03         -0.3024
5155       1.355e+01       1.835e+01       5.131e-01           0.135          -0.072           0.988       1.639e-03         -0.2884
5156       1.368e+01       1.835e+01       4.912e-01           0.183          -0.096           0.978       1.509e-03         -0.3047
5157       1.380e+01       1.835e+01       4.664e-01           0.222          -0.115           0.968       1.289e-03         -0.3756
5158       1.390e+01       1.835e+01       4.427e-01           0.254          -0.130           0.959       9.875e-04         -0.5770
5159       1.397e+01       1.835e+01       4.241e-01           0.276          -0.139           0.951       6.212e-04         -1.0196
5160       1.400e+01       1.835e+01       4.133e-01           0.340          -0.167           0.925       2.169e-04         -1.3701
Strip 199
5161       1.401e+01       1.836e+01       4.105e-01          -0.028           0.034          -0.999       1.207e-04         -3.4831
5162       1.397e+01       1.836e+01       4.130e-01          -0.087           0.060          -0.994       3.565e-04         -1.5449
5163       1.391e+01       1.836e+01       4.184e-01          -0.075           0.054          -0.996       5.705e-04         -0.6947
5164       1.381e+01       1.836e+01       4.247e-01          -0.057           0.046          -0.997       7.506e-04         -0.3476
5165       1.369e+01       1.836e+01       4.301e-01          -0.034           0.035          -0.999       8.868e-04         -0.1807
5166       1.355e+01       1.836e+01       4.329e-01          -0.009           0.022          -1.000       9.718e-04         -0.0886
5167       1.341e+01       1.836e+01       4.326e-01           0.014           0.010          -1.000       1.001e-03         -0.0337
5168       1.326e+01       1.836e+01       4.287e-01           0.040          -0.006          -0.999       9.729e-04          0.0038
5169       1.313e+01       1.836e+01       4.203e-01           0.085          -0.033          -0.996       8.909e-04          0.0226
5170       1.300e+01       1.836e+01       4.087e-01           0.108          -0.048          -0.993       7.555e-04          0.0024
5171       1.291e+01       1.836e+01       3.990e-01           0.088          -0.035          -0.996       5.718e-04         -0.0708
5172       1.284e+01       1.836e+01       3.961e-01          -0.032           0.048          -0.998       3.553e-04         -0.2831
5173       1.280e+01       1.836e+01       4.036e-01          -0.553           0.402          -0.730       1.633e-04         -0.2108
5174       1.280e+01       1.836e+01       4.221e-01          -0.699           0.476           0.534       2.307e-04         -0.3167
5175       1.284e+01       1.836e+01       4.490e-01          -0.472           0.313           0.824       4.345e-04         -0.4349
5176       1.291e+01       1.836e+01       4.798e-01          -0.339           0.222           0.914       6.253e-04         -0.3805
5177       1.300e+01       1.836e+01       5.083e-01          -0.225           0.146           0.963       7.802e-04         -0.3458
5178       1.313e+01       1.836e+01       5.284e-01          -0.109           0.071           0.992       8.949e-04         -0.3335
5179       1.326e+01       1.836e+01       5.351e-01           0.006           0.001           1.000       9.714e-04         -0.3201
5180       1.341e+01       1.836e+01       5.288e-01           0.080          -0.042           0.996       1.004e-03         -0.3003
5181       1.355e+01       1.836e+01       5.131e-01           0.135          -0.072           0.988       9.815e-04         -0.3092
5182       1.369e+01       1.836e+01       4.912e-01           0.183          -0.096           0.978       9.036e-04         -0.3500
5183       1.381e+01       1.836e+01       4.665e-01           0.222          -0.115           0.968       7.717e-04         -0.4499
5184       1.391e+01       1.836e+01       4.428e-01           0.254          -0.130           0.959       5.914e-04         -0.7289
5185       1.397e+01       1.836e+01       4.243e-01           0.276          -0.139           0.951       3.720e-04         -1.6582
5186       1.401e+01       1.836e+01       4.135e-01           0.340          -0.167           0.925       1.299e-04         -4.3521
Strip 200
5187       1.401e+01       1.836e+01       4.106e-01          -0.028           0.034          -0.999       4.020e-05         -6.1028
5188       1.398e+01       1.836e+01       4.131e-01          -0.087           0.060          -0.994       1.187e-04         -2.0775
5189       1.391e+01       1.836e+01       4.185e-01          -0.075           0.054          -0.996       1.900e-04         -0.7964
5190       1.381e+01       1.836e+01       4.248e-01          -0.057           0.046          -0.997       2.500e-04         -0.3797
5191       1.369e+01       1.836e+01       4.301e-01          -0.034           0.035          -0.999       2.953e-04         -0.1948
5192       1.355e+01       1.836e+01       4.330e-01          -0.009           0.022          -1.000       3.236e-04         -0.0952
5193       1.341e+01       1.836e+01       4.327e-01           0.014           0.010          -1.000       3.334e-04         -0.0370
5194       1.326e+01       1.836e+01       4.288e-01           0.040          -0.006          -0.999       3.240e-04          0.0015
5195       1.313e+01       1.836e+01       4.204e-01           0.085          -0.033          -0.996       2.967e-04          0.0210
5196       1.301e+01       1.836e+01       4.088e-01           0.108          -0.048          -0.993       2.516e-04          0.0041
5197       1.291e+01       1.836e+01       3.991e-01           0.088          -0.035          -0.996       1.904e-04         -0.0557
5198       1.284e+01       1.836e+01       3.962e-01          -0.032           0.048          -0.998       1.183e-04         -0.2211
5199       1.281e+01       1.836e+01       4.037e-01          -0.553           0.402          -0.730       5.440e-05         -0.4388
5200       1.281e+01       1.836e+01       4.222e-01          -0.699           0.476           0.534       7.683e-05         -0.7682
5201       1.284e+01       1.836e+01       4.491e-01          -0.472           0.313           0.824       1.447e-04         -0.5810
5202       1.291e+01       1.836e+01       4.798e-01          -0.339           0.222           0.914       2.083e-04         -0.4343
5203       1.301e+01       1.836e+01       5.083e-01          -0.225           0.146           0.963       2.598e-04         -0.3498
5204       1.313e+01       1.836e+01       5.284e-01          -0.109           0.071           0.992       2.980e-04         -0.3142
5205       1.326e+01       1.836e+01       5.351e-01           0.006           0.001           1.000       3.235e-04         -0.3052
5206       1.341e+01       1.836e+01       5.288e-01           0.080          -0.042           0.996       3.342e-04         -0.3019
5207       1.355e+01       1.836e+01       5.131e-01           0.135          -0.072           0.988       3.269e-04         -0.3284
5208       1.369e+01       1.836e+01       4.912e-01           0.183          -0.096           0.978       3.009e-04         -0.3881
5209       1.381e+01       1.836e+01       4.665e-01           0.222          -0.115           0.968       2.570e-04         -0.5062
5210       1.391e+01       1.836e+01       4.429e-01           0.254          -0.130           0.959       1.970e-04         -0.8091
5211       1.398e+01       1.836e+01       4.244e-01           0.276          -0.139           0.951       1.239e-04         -1.9270
5212       1.401e+01       1.836e+01       4.136e-01           0.340          -0.167           0.925       4.326e-05         -7.3582










