xflr5 v6.57

Plane Name
T1-10.0 m/s-Panel-Inviscid
QInf  =   10.000000 m/s
Alpha =   10.000000
Beta  =    0.000°
Phi   =    0.000°
Ctrl  =    0.000
CL    =    1.272014
Cy    =   -0.000000
Cd    =    0.051376     ICd   =    0.051376     PCd   =    0.000000
Cl   = -2.37529e-14
Cm   =    -2.10233
ICn   =   -0.000000     PCn   =   -0.000000 
XCP   =    6.967907     YCP   =    0.000000     ZCP   =    0.409405  
XNP   =    0.000000
Bending = 39849.143685

Main Wing
  y-span        Chord      Ai         Cl        PCd          ICd        CmGeom    CmAirf@chord/4    XTrtop    XTrBot      XCP       BM
  -18.3689     1.2203   -67.811    0.168579    0.000000    0.413367   -3.615304    0.015366     0.0000    0.0000    0.2335    0.0000
  -18.3643     1.2215   -22.277    0.251228    0.000000    0.102924   -4.248313    0.004707     0.0000    0.0000    0.2563    0.0001
  -18.3553     1.2239   -15.811    0.348651    0.000000    0.098736   -4.871382    0.010096     0.0000    0.0000    0.2367    0.0016
  -18.3417     1.2276   -12.922    0.444629    0.000000    0.102019   -5.534961    0.011810     0.0000    0.0000    0.2301    0.0079
  -18.3236     1.2324   -11.258    0.537589    0.000000    0.107012   -6.170674    0.011643     0.0000    0.0000    0.2288    0.0262
  -18.3009     1.2384   -10.206    0.627069    0.000000    0.112898   -6.838378    0.009167     0.0000    0.0000    0.2323    0.0683
  -18.2738     1.2457    -9.430    0.712602    0.000000    0.118358   -7.563275    0.004240     0.0000    0.0000    0.2392    0.1518
  -18.2421     1.2541    -8.800    0.793837    0.000000    0.122894   -8.309431   -0.002635     0.0000    0.0000    0.2477    0.3011
  -18.2059     1.2638    -8.260    0.870522    0.000000    0.126373   -9.029725   -0.010673     0.0000    0.0000    0.2563    0.5485
  -18.1653     1.2746    -7.779    0.942476    0.000000    0.128741   -9.697077   -0.019285     0.0000    0.0000    0.2644    0.9348
  -18.1201     1.2866    -7.338    1.009577    0.000000    0.129997   -10.299491   -0.028130     0.0000    0.0000    0.2717    1.5099
  -18.0705     1.2999    -6.926    1.071765    0.000000    0.130183   -10.831483   -0.036979     0.0000    0.0000    0.2782    2.3341
  -18.0165     1.3143    -6.537    1.129034    0.000000    0.129358   -11.290509   -0.045646     0.0000    0.0000    0.2841    3.4780
  -17.9580     1.3299    -6.165    1.181435    0.000000    0.127609   -11.675784   -0.053996     0.0000    0.0000    0.2893    5.0234
  -17.8950     1.3467    -5.810    1.229070    0.000000    0.125040   -11.988810   -0.061923     0.0000    0.0000    0.2939    7.0638
  -17.8277     1.3647    -5.469    1.272088    0.000000    0.121771   -12.232162   -0.069347     0.0000    0.0000    0.2980    9.7042
  -17.7559     1.3838    -5.142    1.310677    0.000000    0.117924   -12.409369   -0.076215     0.0000    0.0000    0.3016   13.0622
  -17.6798     1.4041    -4.830    1.345063    0.000000    0.113630   -12.524865   -0.082496     0.0000    0.0000    0.3047   17.2676
  -17.5993     1.4256    -4.532    1.375495    0.000000    0.109016   -12.583507   -0.088178     0.0000    0.0000    0.3074   22.4631
  -17.5144     1.4482    -4.252    1.402248    0.000000    0.104235   -12.590411   -0.093277     0.0000    0.0000    0.3098   28.8042
  -17.4252     1.4720    -3.988    1.425594    0.000000    0.099363   -12.550892   -0.097810     0.0000    0.0000    0.3119   36.4594
  -17.3318     1.4969    -3.741    1.445820    0.000000    0.094521   -12.470202   -0.101810     0.0000    0.0000    0.3136   45.6104
  -17.2340     1.5230    -3.513    1.463202    0.000000    0.089792   -12.353274   -0.105318     0.0000    0.0000    0.3152   56.4525
  -17.1321     1.5502    -3.302    1.478009    0.000000    0.085240   -12.204864   -0.108380     0.0000    0.0000    0.3165   69.1942
  -17.0258     1.5785    -3.109    1.490497    0.000000    0.080923   -12.029477   -0.111040     0.0000    0.0000    0.3177   84.0580
  -16.9154     1.6080    -2.933    1.500902    0.000000    0.076872   -11.831169   -0.113342     0.0000    0.0000    0.3187   101.2801
  -16.8008     1.6386    -2.774    1.509442    0.000000    0.073108   -11.613615   -0.115329     0.0000    0.0000    0.3195   121.1107
  -16.6821     1.6702    -2.631    1.516317    0.000000    0.069638   -11.380226   -0.117037     0.0000    0.0000    0.3203   143.8141
  -16.5592     1.7030    -2.503    1.521709    0.000000    0.066476   -11.134017   -0.118505     0.0000    0.0000    0.3210   169.6691
  -16.4323     1.7369    -2.388    1.525777    0.000000    0.063603   -10.877628   -0.119763     0.0000    0.0000    0.3216   198.9688
  -16.3013     1.7718    -2.287    1.528670    0.000000    0.061026   -10.613415   -0.120838     0.0000    0.0000    0.3222   232.0209
  -16.1663     1.8078    -2.198    1.530512    0.000000    0.058715   -10.343435   -0.121757     0.0000    0.0000    0.3227   269.1478
  -16.0273     1.8449    -2.120    1.531418    0.000000    0.056660   -10.069508   -0.122538     0.0000    0.0000    0.3232   310.6868
  -15.8843     1.8830    -2.052    1.531487    0.000000    0.054841   -9.793166   -0.123202     0.0000    0.0000    0.3236   356.9900
  -15.7374     1.9222    -1.994    1.530810    0.000000    0.053248   -9.515803   -0.123763     0.0000    0.0000    0.3240   408.4243
  -15.5867     1.9624    -1.944    1.529463    0.000000    0.051864   -9.238607   -0.124238     0.0000    0.0000    0.3244   465.3717
  -15.4320     2.0037    -1.900    1.527510    0.000000    0.050645   -8.962526   -0.124632     0.0000    0.0000    0.3248   528.2293
  -15.2736     2.0459    -1.865    1.525019    0.000000    0.049611   -8.688484   -0.124961     0.0000    0.0000    0.3251   597.4089
  -15.1114     2.0892    -1.835    1.522041    0.000000    0.048733   -8.417212   -0.125232     0.0000    0.0000    0.3255   673.3372
  -14.9455     2.1334    -1.812    1.518621    0.000000    0.047995   -8.149320   -0.125454     0.0000    0.0000    0.3258   756.4559
  -14.7759     2.1787    -1.793    1.514801    0.000000    0.047384   -7.885343   -0.125631     0.0000    0.0000    0.3262   847.2210
  -14.6027     2.2249    -1.780    1.510617    0.000000    0.046891   -7.625699   -0.125770     0.0000    0.0000    0.3265   946.1032
  -14.4258     2.2721    -1.770    1.506101    0.000000    0.046503   -7.370753   -0.125875     0.0000    0.0000    0.3269   1053.5874
  -14.2454     2.3202    -1.765    1.501279    0.000000    0.046207   -7.120786   -0.125950     0.0000    0.0000    0.3272   1170.1723
  -14.0615     2.3692    -1.763    1.496176    0.000000    0.045997   -6.876030   -0.125999     0.0000    0.0000    0.3275   1296.3704
  -13.8741     2.4192    -1.764    1.490815    0.000000    0.045864   -6.636655   -0.126025     0.0000    0.0000    0.3279   1432.7076
  -13.6833     2.4701    -1.768    1.485212    0.000000    0.045795   -6.402784   -0.126031     0.0000    0.0000    0.3282   1579.7226
  -13.4891     2.5219    -1.775    1.479388    0.000000    0.045797   -6.174534   -0.126020     0.0000    0.0000    0.3286   1737.9664
  -13.2916     2.5746    -1.784    1.473353    0.000000    0.045849   -5.951952   -0.125992     0.0000    0.0000    0.3289   1908.0022
  -13.0908     2.6282    -1.796    1.467120    0.000000    0.045946   -5.735054   -0.125949     0.0000    0.0000    0.3293   2090.4045
  -12.8867     2.6826    -1.809    1.460703    0.000000    0.046094   -5.523860   -0.125896     0.0000    0.0000    0.3297   2285.7585
  -12.6795     2.7379    -1.825    1.454108    0.000000    0.046276   -5.318350   -0.125830     0.0000    0.0000    0.3300   2494.6598
  -12.4692     2.7940    -1.842    1.447344    0.000000    0.046492   -5.118481   -0.125754     0.0000    0.0000    0.3304   2717.7130
  -12.2558     2.8509    -1.860    1.440418    0.000000    0.046738   -4.924198   -0.125669     0.0000    0.0000    0.3308   2955.5319
  -12.0393     2.9086    -1.881    1.433337    0.000000    0.047013   -4.735458   -0.125575     0.0000    0.0000    0.3312   3208.7378
  -11.8199     2.9672    -1.902    1.426103    0.000000    0.047305   -4.552152   -0.125474     0.0000    0.0000    0.3316   3477.9591
  -11.5976     3.0265    -1.924    1.418723    0.000000    0.047618   -4.374203   -0.125366     0.0000    0.0000    0.3320   3763.8303
  -11.3724     3.0865    -1.948    1.411198    0.000000    0.047947   -4.201524   -0.125252     0.0000    0.0000    0.3325   4066.9909
  -11.1444     3.1473    -1.973    1.403532    0.000000    0.048289   -4.034021   -0.125134     0.0000    0.0000    0.3329   4388.0847
  -10.9137     3.2089    -1.998    1.395727    0.000000    0.048644   -3.871587   -0.125011     0.0000    0.0000    0.3333   4727.7585
  -10.6802     3.2712    -2.025    1.387783    0.000000    0.049002   -3.714110   -0.124882     0.0000    0.0000    0.3338   5086.6608
  -10.4442     3.3341    -2.052    1.379701    0.000000    0.049371   -3.561489   -0.124751     0.0000    0.0000    0.3343   5465.4411
  -10.2055     3.3978    -2.080    1.371481    0.000000    0.049740   -3.413597   -0.124616     0.0000    0.0000    0.3348   5864.7483
   -9.9643     3.4621    -2.108    1.363121    0.000000    0.050110   -3.270325   -0.124479     0.0000    0.0000    0.3353   6285.2297
   -9.7207     3.5271    -2.137    1.354622    0.000000    0.050478   -3.131560   -0.124340     0.0000    0.0000    0.3358   6727.5293
   -9.4747     3.5927    -2.166    1.345982    0.000000    0.050847   -2.997195   -0.124200     0.0000    0.0000    0.3363   7192.2871
   -9.2263     3.6590    -2.196    1.337198    0.000000    0.051206   -2.867114   -0.124059     0.0000    0.0000    0.3368   7680.1370
   -8.9757     3.7258    -2.226    1.328267    0.000000    0.051558   -2.741201   -0.123917     0.0000    0.0000    0.3374   8191.7059
   -8.7228     3.7933    -2.256    1.319188    0.000000    0.051901   -2.619350   -0.123776     0.0000    0.0000    0.3380   8727.6119
   -8.4678     3.8613    -2.287    1.309956    0.000000    0.052233   -2.501450   -0.123638     0.0000    0.0000    0.3386   9288.4629
   -8.2107     3.9299    -2.317    1.300567    0.000000    0.052549   -2.387399   -0.123501     0.0000    0.0000    0.3392   9874.8553
   -7.9516     3.9990    -2.348    1.291017    0.000000    0.052850   -2.277088   -0.123368     0.0000    0.0000    0.3399   10487.3720
   -7.6905     4.0686    -2.378    1.281300    0.000000    0.053131   -2.170419   -0.123240     0.0000    0.0000    0.3405   11126.5809
   -7.4276     4.1388    -2.408    1.271412    0.000000    0.053390   -2.067291   -0.123119     0.0000    0.0000    0.3412   11793.0336
   -7.1628     4.2094    -2.438    1.261346    0.000000    0.053626   -1.967610   -0.123005     0.0000    0.0000    0.3420   12487.2632
   -6.8962     4.2805    -2.468    1.251097    0.000000    0.053836   -1.871281   -0.122902     0.0000    0.0000    0.3428   13209.7833
   -6.6279     4.3521    -2.497    1.240655    0.000000    0.054009   -1.778215   -0.122811     0.0000    0.0000    0.3436   13961.0854
   -6.3580     4.4241    -2.525    1.230013    0.000000    0.054150   -1.688321   -0.122736     0.0000    0.0000    0.3444   14741.6380
   -6.0865     4.4965    -2.553    1.219166    0.000000    0.054255   -1.601520   -0.122682     0.0000    0.0000    0.3453   15551.8845
   -5.8135     4.5693    -2.579    1.208101    0.000000    0.054314   -1.517728   -0.122652     0.0000    0.0000    0.3463   16392.2411
   -5.5391     4.6425    -2.604    1.196811    0.000000    0.054328   -1.436874   -0.122653     0.0000    0.0000    0.3473   17263.0958
   -5.2633     4.7161    -2.628    1.185283    0.000000    0.054284   -1.358879   -0.122689     0.0000    0.0000    0.3485   18164.8058
   -4.9862     4.7900    -2.649    1.173507    0.000000    0.054180   -1.283680   -0.122770     0.0000    0.0000    0.3496   19097.6962
   -4.7079     4.8642    -2.669    1.161470    0.000000    0.054007   -1.211212   -0.122904     0.0000    0.0000    0.3509   20062.0583
   -4.4284     4.9388    -2.685    1.149161    0.000000    0.053761   -1.141418   -0.123105     0.0000    0.0000    0.3523   21058.1470
   -4.1478     5.0136    -2.698    1.136563    0.000000    0.053419   -1.074242   -0.123384     0.0000    0.0000    0.3539   22086.1800
   -3.8662     5.0887    -2.708    1.123664    0.000000    0.052982   -1.009638   -0.123761     0.0000    0.0000    0.3556   23146.3352
   -3.5837     5.1641    -2.712    1.110445    0.000000    0.052428   -0.947567   -0.124259     0.0000    0.0000    0.3574   24238.7493
   -3.3003     5.2397    -2.710    1.096891    0.000000    0.051741   -0.887995   -0.124902     0.0000    0.0000    0.3596   25363.5159
   -3.0160     5.3155    -2.702    1.082982    0.000000    0.050900   -0.830899   -0.125723     0.0000    0.0000    0.3619   26520.6834
   -2.7310     5.3915    -2.684    1.068699    0.000000    0.049877   -0.776271   -0.126766     0.0000    0.0000    0.3646   27710.2538
   -2.4454     5.4677    -2.656    1.054022    0.000000    0.048640   -0.724114   -0.128082     0.0000    0.0000    0.3677   28932.1802
   -2.1591     5.5441    -2.614    1.038925    0.000000    0.047143   -0.674451   -0.129738     0.0000    0.0000    0.3713   30186.3656
   -1.8723     5.6206    -2.555    1.023381    0.000000    0.045335   -0.627332   -0.131823     0.0000    0.0000    0.3756   31472.6607
   -1.5850     5.6972    -2.474    1.007351    0.000000    0.043125   -0.582837   -0.134449     0.0000    0.0000    0.3806   32790.8623
   -1.2974     5.7739    -2.364    0.990773    0.000000    0.040401   -0.541103   -0.137776     0.0000    0.0000    0.3865   34140.7109
   -1.0094     5.8508    -2.214    0.973518    0.000000    0.036973   -0.502339   -0.142025     0.0000    0.0000    0.3938   35521.8882
   -0.7212     5.9276    -2.005    0.955226    0.000000    0.032488   -0.466884   -0.147529     0.0000    0.0000    0.4029   36934.0120
   -0.4328     6.0046    -1.703    0.934409    0.000000    0.026142   -0.435363   -0.154840     0.0000    0.0000    0.4144   38376.6244
   -0.1443     6.0815    -1.231    0.896093    0.000000    0.014057   -0.411995   -0.166084     0.0000    0.0000    0.4292   39849.1437
    0.1443     6.0815    -1.231    0.896093    0.000000    0.014057   -0.411995   -0.166084     0.0000    0.0000    0.4292   39849.1437
    0.4328     6.0046    -1.703    0.934409    0.000000    0.026142   -0.435363   -0.154840     0.0000    0.0000    0.4144   38376.6244
    0.7212     5.9276    -2.005    0.955226    0.000000    0.032488   -0.466884   -0.147529     0.0000    0.0000    0.4029   36934.0120
    1.0094     5.8508    -2.214    0.973518    0.000000    0.036973   -0.502339   -0.142025     0.0000    0.0000    0.3938   35521.8882
    1.2974     5.7739    -2.364    0.990773    0.000000    0.040401   -0.541103   -0.137776     0.0000    0.0000    0.3865   34140.7109
    1.5850     5.6972    -2.474    1.007351    0.000000    0.043125   -0.582837   -0.134449     0.0000    0.0000    0.3806   32790.8623
    1.8723     5.6206    -2.555    1.023381    0.000000    0.045335   -0.627332   -0.131823     0.0000    0.0000    0.3756   31472.6607
    2.1591     5.5441    -2.614    1.038925    0.000000    0.047143   -0.674451   -0.129738     0.0000    0.0000    0.3713   30186.3656
    2.4454     5.4677    -2.656    1.054022    0.000000    0.048640   -0.724114   -0.128082     0.0000    0.0000    0.3677   28932.1802
    2.7310     5.3915    -2.684    1.068699    0.000000    0.049877   -0.776271   -0.126766     0.0000    0.0000    0.3646   27710.2538
    3.0160     5.3155    -2.702    1.082982    0.000000    0.050900   -0.830899   -0.125723     0.0000    0.0000    0.3619   26520.6834
    3.3003     5.2397    -2.710    1.096891    0.000000    0.051741   -0.887995   -0.124902     0.0000    0.0000    0.3596   25363.5159
    3.5837     5.1641    -2.712    1.110445    0.000000    0.052428   -0.947567   -0.124259     0.0000    0.0000    0.3574   24238.7493
    3.8662     5.0887    -2.708    1.123664    0.000000    0.052982   -1.009638   -0.123761     0.0000    0.0000    0.3556   23146.3352
    4.1478     5.0136    -2.698    1.136563    0.000000    0.053419   -1.074242   -0.123384     0.0000    0.0000    0.3539   22086.1800
    4.4284     4.9388    -2.685    1.149161    0.000000    0.053761   -1.141418   -0.123105     0.0000    0.0000    0.3523   21058.1470
    4.7079     4.8642    -2.669    1.161470    0.000000    0.054007   -1.211212   -0.122904     0.0000    0.0000    0.3509   20062.0583
    4.9862     4.7900    -2.649    1.173507    0.000000    0.054180   -1.283680   -0.122770     0.0000    0.0000    0.3496   19097.6962
    5.2633     4.7161    -2.628    1.185283    0.000000    0.054284   -1.358879   -0.122689     0.0000    0.0000    0.3485   18164.8058
    5.5391     4.6425    -2.604    1.196811    0.000000    0.054328   -1.436874   -0.122653     0.0000    0.0000    0.3473   17263.0958
    5.8135     4.5693    -2.579    1.208101    0.000000    0.054314   -1.517728   -0.122652     0.0000    0.0000    0.3463   16392.2411
    6.0865     4.4965    -2.553    1.219166    0.000000    0.054255   -1.601520   -0.122682     0.0000    0.0000    0.3453   15551.8845
    6.3580     4.4241    -2.525    1.230013    0.000000    0.054150   -1.688321   -0.122736     0.0000    0.0000    0.3444   14741.6380
    6.6279     4.3521    -2.497    1.240655    0.000000    0.054009   -1.778215   -0.122811     0.0000    0.0000    0.3436   13961.0854
    6.8962     4.2805    -2.468    1.251097    0.000000    0.053836   -1.871281   -0.122902     0.0000    0.0000    0.3428   13209.7833
    7.1628     4.2094    -2.438    1.261346    0.000000    0.053626   -1.967610   -0.123005     0.0000    0.0000    0.3420   12487.2632
    7.4276     4.1388    -2.408    1.271412    0.000000    0.053390   -2.067291   -0.123119     0.0000    0.0000    0.3412   11793.0336
    7.6905     4.0686    -2.378    1.281300    0.000000    0.053131   -2.170419   -0.123240     0.0000    0.0000    0.3405   11126.5809
    7.9516     3.9990    -2.348    1.291017    0.000000    0.052850   -2.277088   -0.123368     0.0000    0.0000    0.3399   10487.3720
    8.2107     3.9299    -2.317    1.300567    0.000000    0.052549   -2.387399   -0.123501     0.0000    0.0000    0.3392   9874.8553
    8.4678     3.8613    -2.287    1.309956    0.000000    0.052233   -2.501450   -0.123638     0.0000    0.0000    0.3386   9288.4629
    8.7228     3.7933    -2.256    1.319188    0.000000    0.051901   -2.619350   -0.123776     0.0000    0.0000    0.3380   8727.6119
    8.9757     3.7258    -2.226    1.328267    0.000000    0.051558   -2.741201   -0.123917     0.0000    0.0000    0.3374   8191.7059
    9.2263     3.6590    -2.196    1.337198    0.000000    0.051206   -2.867114   -0.124059     0.0000    0.0000    0.3368   7680.1370
    9.4747     3.5927    -2.166    1.345982    0.000000    0.050847   -2.997195   -0.124200     0.0000    0.0000    0.3363   7192.2871
    9.7207     3.5271    -2.137    1.354622    0.000000    0.050478   -3.131560   -0.124340     0.0000    0.0000    0.3358   6727.5293
    9.9643     3.4621    -2.108    1.363121    0.000000    0.050110   -3.270325   -0.124479     0.0000    0.0000    0.3353   6285.2297
   10.2055     3.3978    -2.080    1.371481    0.000000    0.049740   -3.413597   -0.124616     0.0000    0.0000    0.3348   5864.7483
   10.4442     3.3341    -2.052    1.379701    0.000000    0.049371   -3.561489   -0.124751     0.0000    0.0000    0.3343   5465.4411
   10.6802     3.2712    -2.025    1.387783    0.000000    0.049002   -3.714110   -0.124882     0.0000    0.0000    0.3338   5086.6608
   10.9137     3.2089    -1.998    1.395727    0.000000    0.048644   -3.871587   -0.125011     0.0000    0.0000    0.3333   4727.7585
   11.1444     3.1473    -1.973    1.403532    0.000000    0.048289   -4.034021   -0.125134     0.0000    0.0000    0.3329   4388.0847
   11.3724     3.0865    -1.948    1.411198    0.000000    0.047947   -4.201524   -0.125252     0.0000    0.0000    0.3325   4066.9909
   11.5976     3.0265    -1.924    1.418723    0.000000    0.047618   -4.374203   -0.125366     0.0000    0.0000    0.3320   3763.8303
   11.8199     2.9672    -1.902    1.426103    0.000000    0.047305   -4.552152   -0.125474     0.0000    0.0000    0.3316   3477.9591
   12.0393     2.9086    -1.881    1.433337    0.000000    0.047013   -4.735458   -0.125575     0.0000    0.0000    0.3312   3208.7378
   12.2558     2.8509    -1.860    1.440418    0.000000    0.046738   -4.924198   -0.125669     0.0000    0.0000    0.3308   2955.5319
   12.4692     2.7940    -1.842    1.447344    0.000000    0.046492   -5.118481   -0.125754     0.0000    0.0000    0.3304   2717.7130
   12.6795     2.7379    -1.825    1.454108    0.000000    0.046276   -5.318350   -0.125830     0.0000    0.0000    0.3300   2494.6598
   12.8867     2.6826    -1.809    1.460703    0.000000    0.046094   -5.523860   -0.125896     0.0000    0.0000    0.3297   2285.7585
   13.0908     2.6282    -1.796    1.467120    0.000000    0.045946   -5.735054   -0.125949     0.0000    0.0000    0.3293   2090.4045
   13.2916     2.5746    -1.784    1.473353    0.000000    0.045849   -5.951952   -0.125992     0.0000    0.0000    0.3289   1908.0022
   13.4891     2.5219    -1.775    1.479388    0.000000    0.045797   -6.174534   -0.126020     0.0000    0.0000    0.3286   1737.9664
   13.6833     2.4701    -1.768    1.485212    0.000000    0.045795   -6.402784   -0.126031     0.0000    0.0000    0.3282   1579.7226
   13.8741     2.4192    -1.764    1.490815    0.000000    0.045864   -6.636655   -0.126025     0.0000    0.0000    0.3279   1432.7076
   14.0615     2.3692    -1.763    1.496176    0.000000    0.045997   -6.876030   -0.125999     0.0000    0.0000    0.3275   1296.3704
   14.2454     2.3202    -1.765    1.501279    0.000000    0.046207   -7.120786   -0.125950     0.0000    0.0000    0.3272   1170.1723
   14.4258     2.2721    -1.770    1.506101    0.000000    0.046503   -7.370753   -0.125875     0.0000    0.0000    0.3269   1053.5874
   14.6027     2.2249    -1.780    1.510617    0.000000    0.046891   -7.625699   -0.125770     0.0000    0.0000    0.3265   946.1032
   14.7759     2.1787    -1.793    1.514801    0.000000    0.047384   -7.885343   -0.125631     0.0000    0.0000    0.3262   847.2210
   14.9455     2.1334    -1.812    1.518621    0.000000    0.047995   -8.149320   -0.125454     0.0000    0.0000    0.3258   756.4559
   15.1114     2.0892    -1.835    1.522041    0.000000    0.048733   -8.417212   -0.125232     0.0000    0.0000    0.3255   673.3372
   15.2736     2.0459    -1.865    1.525019    0.000000    0.049611   -8.688484   -0.124961     0.0000    0.0000    0.3251   597.4089
   15.4320     2.0037    -1.900    1.527510    0.000000    0.050645   -8.962526   -0.124632     0.0000    0.0000    0.3248   528.2293
   15.5867     1.9624    -1.944    1.529463    0.000000    0.051864   -9.238607   -0.124238     0.0000    0.0000    0.3244   465.3717
   15.7374     1.9222    -1.994    1.530810    0.000000    0.053248   -9.515803   -0.123763     0.0000    0.0000    0.3240   408.4243
   15.8843     1.8830    -2.052    1.531487    0.000000    0.054841   -9.793166   -0.123202     0.0000    0.0000    0.3236   356.9900
   16.0273     1.8449    -2.120    1.531418    0.000000    0.056660   -10.069508   -0.122538     0.0000    0.0000    0.3232   310.6868
   16.1663     1.8078    -2.198    1.530512    0.000000    0.058715   -10.343435   -0.121757     0.0000    0.0000    0.3227   269.1478
   16.3013     1.7718    -2.287    1.528670    0.000000    0.061026   -10.613415   -0.120838     0.0000    0.0000    0.3222   232.0209
   16.4323     1.7369    -2.388    1.525777    0.000000    0.063603   -10.877628   -0.119763     0.0000    0.0000    0.3216   198.9688
   16.5592     1.7030    -2.503    1.521709    0.000000    0.066476   -11.134017   -0.118505     0.0000    0.0000    0.3210   169.6691
   16.6821     1.6702    -2.631    1.516317    0.000000    0.069638   -11.380226   -0.117037     0.0000    0.0000    0.3203   143.8141
   16.8008     1.6386    -2.774    1.509442    0.000000    0.073108   -11.613615   -0.115329     0.0000    0.0000    0.3195   121.1107
   16.9154     1.6080    -2.933    1.500902    0.000000    0.076872   -11.831169   -0.113342     0.0000    0.0000    0.3187   101.2801
   17.0258     1.5785    -3.109    1.490497    0.000000    0.080923   -12.029477   -0.111040     0.0000    0.0000    0.3177   84.0580
   17.1321     1.5502    -3.302    1.478009    0.000000    0.085240   -12.204864   -0.108380     0.0000    0.0000    0.3165   69.1942
   17.2340     1.5230    -3.513    1.463202    0.000000    0.089792   -12.353274   -0.105318     0.0000    0.0000    0.3152   56.4525
   17.3318     1.4969    -3.741    1.445820    0.000000    0.094521   -12.470202   -0.101810     0.0000    0.0000    0.3136   45.6104
   17.4252     1.4720    -3.988    1.425594    0.000000    0.099363   -12.550892   -0.097810     0.0000    0.0000    0.3119   36.4594
   17.5144     1.4482    -4.252    1.402248    0.000000    0.104235   -12.590411   -0.093277     0.0000    0.0000    0.3098   28.8042
   17.5993     1.4256    -4.532    1.375495    0.000000    0.109016   -12.583507   -0.088178     0.0000    0.0000    0.3074   22.4631
   17.6798     1.4041    -4.830    1.345063    0.000000    0.113630   -12.524865   -0.082496     0.0000    0.0000    0.3047   17.2676
   17.7559     1.3838    -5.142    1.310677    0.000000    0.117924   -12.409369   -0.076215     0.0000    0.0000    0.3016   13.0622
   17.8277     1.3647    -5.469    1.272088    0.000000    0.121771   -12.232162   -0.069347     0.0000    0.0000    0.2980    9.7042
   17.8950     1.3467    -5.810    1.229070    0.000000    0.125040   -11.988810   -0.061923     0.0000    0.0000    0.2939    7.0638
   17.9580     1.3299    -6.165    1.181435    0.000000    0.127609   -11.675784   -0.053996     0.0000    0.0000    0.2893    5.0234
   18.0165     1.3143    -6.537    1.129034    0.000000    0.129358   -11.290509   -0.045646     0.0000    0.0000    0.2841    3.4780
   18.0705     1.2999    -6.926    1.071765    0.000000    0.130183   -10.831483   -0.036979     0.0000    0.0000    0.2782    2.3341
   18.1201     1.2866    -7.338    1.009577    0.000000    0.129997   -10.299491   -0.028130     0.0000    0.0000    0.2717    1.5099
   18.1653     1.2746    -7.779    0.942476    0.000000    0.128741   -9.697077   -0.019285     0.0000    0.0000    0.2644    0.9348
   18.2059     1.2638    -8.260    0.870522    0.000000    0.126373   -9.029725   -0.010673     0.0000    0.0000    0.2563    0.5485
   18.2421     1.2541    -8.800    0.793837    0.000000    0.122894   -8.309431   -0.002635     0.0000    0.0000    0.2477    0.3011
   18.2738     1.2457    -9.430    0.712602    0.000000    0.118358   -7.563275    0.004240     0.0000    0.0000    0.2392    0.1518
   18.3009     1.2384   -10.206    0.627069    0.000000    0.112898   -6.838378    0.009167     0.0000    0.0000    0.2323    0.0683
   18.3236     1.2324   -11.258    0.537589    0.000000    0.107012   -6.170674    0.011643     0.0000    0.0000    0.2288    0.0262
   18.3417     1.2276   -12.922    0.444629    0.000000    0.102019   -5.534961    0.011810     0.0000    0.0000    0.2301    0.0079
   18.3553     1.2239   -15.811    0.348651    0.000000    0.098736   -4.871382    0.010096     0.0000    0.0000    0.2367    0.0016
   18.3643     1.2215   -22.277    0.251228    0.000000    0.102924   -4.248313    0.004707     0.0000    0.0000    0.2563    0.0001
   18.3689     1.2203   -67.811    0.168579    0.000000    0.413367   -3.615304    0.015366     0.0000    0.0000    0.2335    0.0000


Main Wing Cp Coefficients
 Panel     CtrlPt.x        CtrlPt.y        CtrlPt.z       Nx      Ny       Nz        Area       Cp
Main WingCp Coefficients
Strip 1
  13       1.401e+01      -1.836e+01       4.106e-01          -0.028          -0.034          -0.999       4.020e-05        -37.0004
  14       1.398e+01      -1.836e+01       4.131e-01          -0.087          -0.060          -0.994       1.187e-04        -12.6915
  15       1.391e+01      -1.836e+01       4.185e-01          -0.075          -0.054          -0.996       1.900e-04         -5.2246
  16       1.381e+01      -1.836e+01       4.248e-01          -0.057          -0.046          -0.997       2.500e-04         -2.8239
  17       1.369e+01      -1.836e+01       4.301e-01          -0.034          -0.035          -0.999       2.953e-04         -1.7750
  18       1.355e+01      -1.836e+01       4.330e-01          -0.009          -0.022          -1.000       3.236e-04         -1.2021
  19       1.341e+01      -1.836e+01       4.327e-01           0.014          -0.010          -1.000       3.334e-04         -0.8475
  20       1.326e+01      -1.836e+01       4.288e-01           0.040           0.006          -0.999       3.240e-04         -0.5974
  21       1.313e+01      -1.836e+01       4.204e-01           0.085           0.033          -0.996       2.967e-04         -0.3858
  22       1.301e+01      -1.836e+01       4.088e-01           0.108           0.048          -0.993       2.516e-04         -0.2428
  23       1.291e+01      -1.836e+01       3.991e-01           0.088           0.035          -0.996       1.904e-04         -0.1601
  24       1.284e+01      -1.836e+01       3.962e-01          -0.032          -0.048          -0.998       1.183e-04         -0.2453
  25       1.281e+01      -1.836e+01       4.037e-01          -0.553          -0.402          -0.730       5.440e-05         -1.9703
  26       1.281e+01      -1.836e+01       4.222e-01          -0.699          -0.476           0.534       7.683e-05         -2.1723
  27       1.284e+01      -1.836e+01       4.491e-01          -0.472          -0.313           0.824       1.447e-04         -1.4511
  28       1.291e+01      -1.836e+01       4.798e-01          -0.339          -0.222           0.914       2.083e-04         -1.0185
  29       1.301e+01      -1.836e+01       5.083e-01          -0.225          -0.146           0.963       2.598e-04         -0.9501
  30       1.313e+01      -1.836e+01       5.284e-01          -0.109          -0.071           0.992       2.980e-04         -1.0136
  31       1.326e+01      -1.836e+01       5.351e-01           0.006          -0.001           1.000       3.235e-04         -1.1187
  32       1.341e+01      -1.836e+01       5.288e-01           0.080           0.042           0.996       3.342e-04         -1.2370
  33       1.355e+01      -1.836e+01       5.131e-01           0.135           0.072           0.988       3.269e-04         -1.4668
  34       1.369e+01      -1.836e+01       4.912e-01           0.183           0.096           0.978       3.009e-04         -1.8719
  35       1.381e+01      -1.836e+01       4.665e-01           0.222           0.115           0.968       2.570e-04         -2.6558
  36       1.391e+01      -1.836e+01       4.429e-01           0.254           0.130           0.959       1.970e-04         -4.5924
  37       1.398e+01      -1.836e+01       4.244e-01           0.276           0.139           0.951       1.239e-04        -11.3987
  38       1.401e+01      -1.836e+01       4.136e-01           0.340           0.167           0.925       4.326e-05        -42.5309
Strip 2
  39       1.401e+01      -1.836e+01       4.105e-01          -0.028          -0.034          -0.999       1.207e-04        -21.7757
  40       1.397e+01      -1.836e+01       4.130e-01          -0.087          -0.060          -0.994       3.565e-04         -9.8917
  41       1.391e+01      -1.836e+01       4.184e-01          -0.075          -0.054          -0.996       5.705e-04         -4.6705
  42       1.381e+01      -1.836e+01       4.247e-01          -0.057          -0.046          -0.997       7.506e-04         -2.6096
  43       1.369e+01      -1.836e+01       4.301e-01          -0.034          -0.035          -0.999       8.868e-04         -1.6449
  44       1.355e+01      -1.836e+01       4.329e-01          -0.009          -0.022          -1.000       9.718e-04         -1.1098
  45       1.341e+01      -1.836e+01       4.326e-01           0.014          -0.010          -1.000       1.001e-03         -0.7772
  46       1.326e+01      -1.836e+01       4.287e-01           0.040           0.006          -0.999       9.729e-04         -0.5438
  47       1.313e+01      -1.836e+01       4.203e-01           0.085           0.033          -0.996       8.909e-04         -0.3508
  48       1.300e+01      -1.836e+01       4.087e-01           0.108           0.048          -0.993       7.555e-04         -0.2151
  49       1.291e+01      -1.836e+01       3.990e-01           0.088           0.035          -0.996       5.718e-04         -0.1205
  50       1.284e+01      -1.836e+01       3.961e-01          -0.032          -0.048          -0.998       3.553e-04         -0.0999
  51       1.280e+01      -1.836e+01       4.036e-01          -0.553          -0.402          -0.730       1.633e-04         -1.2691
  52       1.280e+01      -1.836e+01       4.221e-01          -0.699          -0.476           0.534       2.307e-04         -2.1944
  53       1.284e+01      -1.836e+01       4.490e-01          -0.472          -0.313           0.824       4.345e-04         -1.5308
  54       1.291e+01      -1.836e+01       4.798e-01          -0.339          -0.222           0.914       6.253e-04         -1.0829
  55       1.300e+01      -1.836e+01       5.083e-01          -0.225          -0.146           0.963       7.802e-04         -0.9976
  56       1.313e+01      -1.836e+01       5.284e-01          -0.109          -0.071           0.992       8.949e-04         -1.0251
  57       1.326e+01      -1.836e+01       5.351e-01           0.006          -0.001           1.000       9.714e-04         -1.0721
  58       1.341e+01      -1.836e+01       5.288e-01           0.080           0.042           0.996       1.004e-03         -1.1397
  59       1.355e+01      -1.836e+01       5.131e-01           0.135           0.072           0.988       9.815e-04         -1.3254
  60       1.369e+01      -1.836e+01       4.912e-01           0.183           0.096           0.978       9.036e-04         -1.6880
  61       1.381e+01      -1.836e+01       4.665e-01           0.222           0.115           0.968       7.717e-04         -2.4291
  62       1.391e+01      -1.836e+01       4.428e-01           0.254           0.130           0.959       5.914e-04         -4.2464
  63       1.397e+01      -1.836e+01       4.243e-01           0.276           0.139           0.951       3.720e-04         -9.6913
  64       1.401e+01      -1.836e+01       4.135e-01           0.340           0.167           0.925       1.299e-04        -25.2877
Strip 3
  65       1.400e+01      -1.835e+01       4.103e-01          -0.028          -0.034          -0.999       2.015e-04         -7.6023
  66       1.397e+01      -1.835e+01       4.128e-01          -0.087          -0.060          -0.994       5.953e-04         -5.9012
  67       1.390e+01      -1.835e+01       4.182e-01          -0.075          -0.054          -0.996       9.525e-04         -3.6480
  68       1.380e+01      -1.835e+01       4.245e-01          -0.057          -0.046          -0.997       1.253e-03         -2.2310
  69       1.368e+01      -1.835e+01       4.299e-01          -0.034          -0.035          -0.999       1.481e-03         -1.4408
  70       1.355e+01      -1.835e+01       4.328e-01          -0.009          -0.022          -1.000       1.623e-03         -0.9743
  71       1.340e+01      -1.835e+01       4.324e-01           0.014          -0.010          -1.000       1.671e-03         -0.6769
  72       1.326e+01      -1.835e+01       4.286e-01           0.040           0.006          -0.999       1.624e-03         -0.4674
  73       1.312e+01      -1.835e+01       4.201e-01           0.085           0.033          -0.996       1.487e-03         -0.2985
  74       1.300e+01      -1.835e+01       4.085e-01           0.108           0.048          -0.993       1.261e-03         -0.1716
  75       1.290e+01      -1.835e+01       3.987e-01           0.088           0.035          -0.996       9.547e-04         -0.0593
  76       1.283e+01      -1.835e+01       3.959e-01          -0.032          -0.048          -0.998       5.932e-04          0.0814
  77       1.280e+01      -1.835e+01       4.034e-01          -0.553          -0.402          -0.730       2.727e-04         -0.5319
  78       1.280e+01      -1.835e+01       4.219e-01          -0.699          -0.476           0.534       3.852e-04         -2.3997
  79       1.283e+01      -1.835e+01       4.489e-01          -0.472          -0.313           0.824       7.255e-04         -1.6458
  80       1.290e+01      -1.835e+01       4.797e-01          -0.339          -0.222           0.914       1.044e-03         -1.1855
  81       1.300e+01      -1.835e+01       5.083e-01          -0.225          -0.146           0.963       1.303e-03         -1.0707
  82       1.312e+01      -1.835e+01       5.284e-01          -0.109          -0.071           0.992       1.494e-03         -1.0468
  83       1.326e+01      -1.835e+01       5.352e-01           0.006          -0.001           1.000       1.622e-03         -1.0170
  84       1.340e+01      -1.835e+01       5.288e-01           0.080           0.042           0.996       1.676e-03         -1.0192
  85       1.355e+01      -1.835e+01       5.131e-01           0.135           0.072           0.988       1.639e-03         -1.1470
  86       1.368e+01      -1.835e+01       4.912e-01           0.183           0.096           0.978       1.509e-03         -1.4468
  87       1.380e+01      -1.835e+01       4.664e-01           0.222           0.115           0.968       1.289e-03         -2.0886
  88       1.390e+01      -1.835e+01       4.427e-01           0.254           0.130           0.959       9.875e-04         -3.4975
  89       1.397e+01      -1.835e+01       4.241e-01           0.276           0.139           0.951       6.212e-04         -6.2262
  90       1.400e+01      -1.835e+01       4.133e-01           0.340           0.167           0.925       2.169e-04         -8.6352
Strip 4
  91       1.400e+01      -1.834e+01       4.100e-01          -0.028          -0.034          -0.999       2.829e-04         -3.4369
  92       1.396e+01      -1.834e+01       4.125e-01          -0.087          -0.060          -0.994       8.357e-04         -3.1869
  93       1.390e+01      -1.834e+01       4.180e-01          -0.075          -0.054          -0.996       1.337e-03         -2.4874
  94       1.380e+01      -1.834e+01       4.243e-01          -0.057          -0.046          -0.997       1.759e-03         -1.7605
  95       1.368e+01      -1.834e+01       4.296e-01          -0.034          -0.035          -0.999       2.079e-03         -1.2188
  96       1.354e+01      -1.834e+01       4.325e-01          -0.009          -0.022          -1.000       2.278e-03         -0.8472
  97       1.339e+01      -1.834e+01       4.322e-01           0.014          -0.010          -1.000       2.346e-03         -0.5912
  98       1.325e+01      -1.834e+01       4.283e-01           0.040           0.006          -0.999       2.280e-03         -0.4033
  99       1.311e+01      -1.834e+01       4.198e-01           0.085           0.033          -0.996       2.088e-03         -0.2509
 100       1.299e+01      -1.834e+01       4.082e-01           0.108           0.048          -0.993       1.771e-03         -0.1305
 101       1.289e+01      -1.834e+01       3.984e-01           0.088           0.035          -0.996       1.340e-03         -0.0079
 102       1.282e+01      -1.834e+01       3.955e-01          -0.032          -0.048          -0.998       8.327e-04          0.2032
 103       1.279e+01      -1.834e+01       4.030e-01          -0.553          -0.402          -0.730       3.829e-04         -0.2933
 104       1.279e+01      -1.834e+01       4.216e-01          -0.699          -0.476           0.534       5.407e-04         -2.6949
 105       1.282e+01      -1.834e+01       4.487e-01          -0.472          -0.313           0.824       1.018e-03         -1.7803
 106       1.289e+01      -1.834e+01       4.796e-01          -0.339          -0.222           0.914       1.466e-03         -1.2828
 107       1.299e+01      -1.833e+01       5.083e-01          -0.225          -0.146           0.963       1.829e-03         -1.1405
 108       1.311e+01      -1.833e+01       5.285e-01          -0.109          -0.071           0.992       2.098e-03         -1.0805
 109       1.325e+01      -1.833e+01       5.352e-01           0.006          -0.001           1.000       2.277e-03         -0.9998
 110       1.339e+01      -1.833e+01       5.289e-01           0.080           0.042           0.996       2.352e-03         -0.9579
 111       1.354e+01      -1.833e+01       5.131e-01           0.135           0.072           0.988       2.301e-03         -1.0401
 112       1.368e+01      -1.834e+01       4.911e-01           0.183           0.096           0.978       2.118e-03         -1.2667
 113       1.380e+01      -1.834e+01       4.662e-01           0.222           0.115           0.968       1.809e-03         -1.7149
 114       1.390e+01      -1.834e+01       4.425e-01           0.254           0.130           0.959       1.386e-03         -2.4566
 115       1.396e+01      -1.834e+01       4.238e-01           0.276           0.139           0.951       8.720e-04         -3.3572
 116       1.400e+01      -1.834e+01       4.130e-01           0.340           0.167           0.925       3.044e-04         -3.7157
Strip 5
 117       1.399e+01      -1.832e+01       4.096e-01          -0.028          -0.034          -0.999       3.651e-04         -1.8703
 118       1.396e+01      -1.832e+01       4.121e-01          -0.087          -0.060          -0.994       1.078e-03         -1.8200
 119       1.389e+01      -1.832e+01       4.176e-01          -0.075          -0.054          -0.996       1.725e-03         -1.6021
 120       1.379e+01      -1.832e+01       4.239e-01          -0.057          -0.046          -0.997       2.270e-03         -1.2763
 121       1.367e+01      -1.832e+01       4.293e-01          -0.034          -0.035          -0.999       2.682e-03         -0.9604
 122       1.353e+01      -1.832e+01       4.322e-01          -0.009          -0.022          -1.000       2.939e-03         -0.6988
 123       1.338e+01      -1.832e+01       4.319e-01           0.014          -0.010          -1.000       3.027e-03         -0.4955
 124       1.324e+01      -1.832e+01       4.280e-01           0.040           0.006          -0.999       2.943e-03         -0.3346
 125       1.310e+01      -1.832e+01       4.194e-01           0.085           0.033          -0.996       2.694e-03         -0.2007
 126       1.298e+01      -1.832e+01       4.077e-01           0.108           0.048          -0.993       2.285e-03         -0.0892
 127       1.288e+01      -1.832e+01       3.980e-01           0.088           0.035          -0.996       1.729e-03          0.0456
 128       1.281e+01      -1.832e+01       3.951e-01          -0.032          -0.048          -0.998       1.075e-03          0.3102
 129       1.278e+01      -1.832e+01       4.026e-01          -0.553          -0.402          -0.730       4.940e-04         -0.2807
 130       1.278e+01      -1.832e+01       4.213e-01          -0.699          -0.476           0.534       6.977e-04         -2.9832
 131       1.281e+01      -1.832e+01       4.485e-01          -0.472          -0.313           0.824       1.314e-03         -1.9202
 132       1.288e+01      -1.832e+01       4.795e-01          -0.339          -0.222           0.914       1.891e-03         -1.3727
 133       1.298e+01      -1.832e+01       5.083e-01          -0.225          -0.146           0.963       2.359e-03         -1.2010
 134       1.310e+01      -1.832e+01       5.285e-01          -0.109          -0.071           0.992       2.706e-03         -1.1099
 135       1.324e+01      -1.832e+01       5.353e-01           0.006          -0.001           1.000       2.938e-03         -0.9885
 136       1.338e+01      -1.832e+01       5.289e-01           0.080           0.042           0.996       3.035e-03         -0.9057
 137       1.353e+01      -1.832e+01       5.131e-01           0.135           0.072           0.988       2.969e-03         -0.9343
 138       1.367e+01      -1.832e+01       4.910e-01           0.183           0.096           0.978       2.733e-03         -1.0611
 139       1.379e+01      -1.832e+01       4.661e-01           0.222           0.115           0.968       2.334e-03         -1.2862
 140       1.389e+01      -1.832e+01       4.422e-01           0.254           0.130           0.959       1.789e-03         -1.5809
 141       1.396e+01      -1.832e+01       4.235e-01           0.276           0.139           0.951       1.125e-03         -1.8710
 142       1.399e+01      -1.832e+01       4.126e-01           0.340           0.167           0.925       3.928e-04         -1.8746
Strip 6
 143       1.398e+01      -1.830e+01       4.091e-01          -0.028          -0.034          -0.999       4.482e-04         -1.1190
 144       1.395e+01      -1.830e+01       4.116e-01          -0.087          -0.060          -0.994       1.324e-03         -1.1050
 145       1.388e+01      -1.830e+01       4.171e-01          -0.075          -0.054          -0.996       2.118e-03         -1.0360
 146       1.378e+01      -1.830e+01       4.235e-01          -0.057          -0.046          -0.997       2.787e-03         -0.8859
 147       1.366e+01      -1.830e+01       4.289e-01          -0.034          -0.035          -0.999       3.293e-03         -0.7100
 148       1.352e+01      -1.830e+01       4.318e-01          -0.009          -0.022          -1.000       3.608e-03         -0.5394
 149       1.337e+01      -1.830e+01       4.315e-01           0.014          -0.010          -1.000       3.717e-03         -0.3885
 150       1.322e+01      -1.830e+01       4.276e-01           0.040           0.006          -0.999       3.613e-03         -0.2574
 151       1.309e+01      -1.830e+01       4.190e-01           0.085           0.033          -0.996       3.308e-03         -0.1429
 152       1.296e+01      -1.830e+01       4.072e-01           0.108           0.048          -0.993       2.805e-03         -0.0367
 153       1.287e+01      -1.830e+01       3.974e-01           0.088           0.035          -0.996       2.123e-03          0.1210
 154       1.280e+01      -1.830e+01       3.945e-01          -0.032          -0.048          -0.998       1.319e-03          0.4052
 155       1.276e+01      -1.830e+01       4.021e-01          -0.553          -0.402          -0.730       6.066e-04         -0.3472
 156       1.276e+01      -1.830e+01       4.208e-01          -0.699          -0.476           0.534       8.565e-04         -3.2600
 157       1.280e+01      -1.830e+01       4.482e-01          -0.472          -0.313           0.824       1.613e-03         -2.0573
 158       1.287e+01      -1.829e+01       4.793e-01          -0.340          -0.222           0.914       2.322e-03         -1.4610
 159       1.296e+01      -1.829e+01       5.083e-01          -0.225          -0.146           0.963       2.897e-03         -1.2569
 160       1.309e+01      -1.829e+01       5.286e-01          -0.109          -0.071           0.992       3.323e-03         -1.1348
 161       1.322e+01      -1.829e+01       5.354e-01           0.006          -0.001           1.000       3.607e-03         -0.9761
 162       1.337e+01      -1.829e+01       5.290e-01           0.080           0.042           0.996       3.727e-03         -0.8510
 163       1.352e+01      -1.829e+01       5.131e-01           0.135           0.072           0.988       3.645e-03         -0.8219
 164       1.366e+01      -1.829e+01       4.909e-01           0.183           0.096           0.978       3.355e-03         -0.8549
 165       1.378e+01      -1.830e+01       4.658e-01           0.222           0.115           0.968       2.866e-03         -0.9295
 166       1.388e+01      -1.830e+01       4.419e-01           0.254           0.130           0.959       2.196e-03         -1.0246
 167       1.395e+01      -1.830e+01       4.230e-01           0.276           0.139           0.951       1.381e-03         -1.0977
 168       1.398e+01      -1.830e+01       4.121e-01           0.340           0.167           0.925       4.823e-04         -1.0111
Strip 7
 169       1.397e+01      -1.827e+01       4.085e-01          -0.028          -0.034          -0.999       5.325e-04         -0.6996
 170       1.393e+01      -1.827e+01       4.110e-01          -0.087          -0.060          -0.994       1.573e-03         -0.6961
 171       1.386e+01      -1.827e+01       4.166e-01          -0.075          -0.054          -0.996       2.517e-03         -0.6780
 172       1.377e+01      -1.827e+01       4.230e-01          -0.057          -0.046          -0.997       3.311e-03         -0.6046
 173       1.364e+01      -1.827e+01       4.284e-01          -0.034          -0.035          -0.999       3.912e-03         -0.5025
 174       1.350e+01      -1.827e+01       4.314e-01          -0.009          -0.022          -1.000       4.287e-03         -0.3908
 175       1.336e+01      -1.827e+01       4.310e-01           0.014          -0.010          -1.000       4.416e-03         -0.2803
 176       1.321e+01      -1.827e+01       4.271e-01           0.040           0.006          -0.999       4.292e-03         -0.1742
 177       1.307e+01      -1.827e+01       4.184e-01           0.085           0.033          -0.996       3.930e-03         -0.0749
 178       1.295e+01      -1.827e+01       4.066e-01           0.108           0.048          -0.993       3.333e-03          0.0318
 179       1.285e+01      -1.827e+01       3.967e-01           0.088           0.035          -0.996       2.523e-03          0.2060
 180       1.278e+01      -1.827e+01       3.938e-01          -0.032          -0.048          -0.998       1.567e-03          0.4712
 181       1.274e+01      -1.827e+01       4.014e-01          -0.553          -0.402          -0.730       7.207e-04         -0.4452
 182       1.274e+01      -1.827e+01       4.203e-01          -0.699          -0.476           0.534       1.018e-03         -3.5272
 183       1.278e+01      -1.827e+01       4.478e-01          -0.472          -0.313           0.824       1.917e-03         -2.1898
 184       1.285e+01      -1.827e+01       4.791e-01          -0.340          -0.222           0.914       2.758e-03         -1.5499
 185       1.295e+01      -1.827e+01       5.082e-01          -0.225          -0.146           0.963       3.442e-03         -1.3156
 186       1.307e+01      -1.827e+01       5.287e-01          -0.109          -0.071           0.992       3.948e-03         -1.1630
 187       1.321e+01      -1.827e+01       5.356e-01           0.006          -0.001           1.000       4.286e-03         -0.9694
 188       1.336e+01      -1.827e+01       5.291e-01           0.080           0.042           0.996       4.428e-03         -0.8033
 189       1.350e+01      -1.827e+01       5.131e-01           0.135           0.072           0.988       4.330e-03         -0.7232
 190       1.364e+01      -1.827e+01       4.908e-01           0.183           0.096           0.978       3.987e-03         -0.6903
 191       1.377e+01      -1.827e+01       4.656e-01           0.222           0.115           0.968       3.405e-03         -0.6834
 192       1.386e+01      -1.827e+01       4.415e-01           0.254           0.130           0.959       2.609e-03         -0.6851
 193       1.393e+01      -1.827e+01       4.225e-01           0.276           0.139           0.951       1.641e-03         -0.6637
 194       1.397e+01      -1.827e+01       4.115e-01           0.340           0.167           0.925       5.731e-04         -0.5452
Strip 8
 195       1.396e+01      -1.824e+01       4.078e-01          -0.028          -0.034          -0.999       6.183e-04         -0.4434
 196       1.392e+01      -1.824e+01       4.103e-01          -0.087          -0.060          -0.994       1.826e-03         -0.4427
 197       1.385e+01      -1.824e+01       4.159e-01          -0.075          -0.054          -0.996       2.922e-03         -0.4433
 198       1.375e+01      -1.824e+01       4.224e-01          -0.057          -0.046          -0.997       3.845e-03         -0.4055
 199       1.363e+01      -1.824e+01       4.279e-01          -0.034          -0.035          -0.999       4.542e-03         -0.3423
 200       1.349e+01      -1.824e+01       4.308e-01          -0.009          -0.022          -1.000       4.977e-03         -0.2653
 201       1.334e+01      -1.824e+01       4.305e-01           0.014          -0.010          -1.000       5.127e-03         -0.1814
 202       1.319e+01      -1.824e+01       4.265e-01           0.040           0.006          -0.999       4.983e-03         -0.0925
 203       1.305e+01      -1.824e+01       4.178e-01           0.085           0.033          -0.996       4.563e-03         -0.0031
 204       1.293e+01      -1.824e+01       4.059e-01           0.108           0.048          -0.993       3.870e-03          0.1045
 205       1.283e+01      -1.824e+01       3.959e-01           0.088           0.035          -0.996       2.929e-03          0.2818
 206       1.276e+01      -1.824e+01       3.930e-01          -0.032          -0.048          -0.998       1.820e-03          0.5128
 207       1.272e+01      -1.824e+01       4.007e-01          -0.553          -0.402          -0.730       8.368e-04         -0.5571
 208       1.272e+01      -1.824e+01       4.197e-01          -0.699          -0.476           0.533       1.181e-03         -3.7854
 209       1.276e+01      -1.824e+01       4.474e-01          -0.472          -0.313           0.824       2.225e-03         -2.3162
 210       1.283e+01      -1.824e+01       4.789e-01          -0.340          -0.222           0.914       3.202e-03         -1.6379
 211       1.293e+01      -1.824e+01       5.082e-01          -0.225          -0.146           0.963       3.996e-03         -1.3789
 212       1.305e+01      -1.823e+01       5.288e-01          -0.109          -0.071           0.992       4.583e-03         -1.1989
 213       1.319e+01      -1.823e+01       5.357e-01           0.006          -0.001           1.000       4.976e-03         -0.9739
 214       1.334e+01      -1.823e+01       5.292e-01           0.080           0.042           0.996       5.141e-03         -0.7715
 215       1.349e+01      -1.824e+01       5.131e-01           0.135           0.072           0.988       5.028e-03         -0.6517
 216       1.363e+01      -1.824e+01       4.906e-01           0.183           0.096           0.978       4.629e-03         -0.5760
 217       1.375e+01      -1.824e+01       4.652e-01           0.222           0.115           0.968       3.953e-03         -0.5225
 218       1.385e+01      -1.824e+01       4.410e-01           0.254           0.130           0.959       3.030e-03         -0.4727
 219       1.392e+01      -1.824e+01       4.219e-01           0.276           0.139           0.951       1.906e-03         -0.4035
 220       1.396e+01      -1.824e+01       4.108e-01           0.340           0.167           0.925       6.653e-04         -0.2712
Strip 9
 221       1.394e+01      -1.820e+01       4.069e-01          -0.028          -0.034          -0.999       7.056e-04         -0.2768
 222       1.390e+01      -1.820e+01       4.096e-01          -0.087          -0.060          -0.994       2.084e-03         -0.2753
 223       1.383e+01      -1.820e+01       4.152e-01          -0.075          -0.054          -0.996       3.335e-03         -0.2829
 224       1.373e+01      -1.820e+01       4.217e-01          -0.057          -0.046          -0.997       4.388e-03         -0.2622
 225       1.361e+01      -1.820e+01       4.272e-01          -0.034          -0.035          -0.999       5.184e-03         -0.2203
 226       1.347e+01      -1.820e+01       4.302e-01          -0.009          -0.022          -1.000       5.681e-03         -0.1638
 227       1.332e+01      -1.820e+01       4.298e-01           0.014          -0.010          -1.000       5.852e-03         -0.0964
 228       1.317e+01      -1.820e+01       4.258e-01           0.040           0.006          -0.999       5.687e-03         -0.0186
 229       1.303e+01      -1.820e+01       4.171e-01           0.085           0.033          -0.996       5.208e-03          0.0647
 230       1.290e+01      -1.820e+01       4.051e-01           0.108           0.048          -0.993       4.416e-03          0.1715
 231       1.280e+01      -1.820e+01       3.950e-01           0.088           0.035          -0.996       3.342e-03          0.3434
 232       1.273e+01      -1.820e+01       3.921e-01          -0.032          -0.048          -0.998       2.077e-03          0.5383
 233       1.269e+01      -1.820e+01       3.998e-01          -0.553          -0.402          -0.730       9.551e-04         -0.6757
 234       1.269e+01      -1.820e+01       4.190e-01          -0.699          -0.476           0.533       1.348e-03         -4.0343
 235       1.273e+01      -1.820e+01       4.469e-01          -0.472          -0.313           0.824       2.539e-03         -2.4359
 236       1.280e+01      -1.820e+01       4.786e-01          -0.340          -0.222           0.914       3.655e-03         -1.7224
 237       1.290e+01      -1.820e+01       5.082e-01          -0.225          -0.146           0.963       4.560e-03         -1.4447
 238       1.303e+01      -1.820e+01       5.289e-01          -0.109          -0.071           0.992       5.231e-03         -1.2420
 239       1.317e+01      -1.820e+01       5.359e-01           0.006          -0.001           1.000       5.679e-03         -0.9900
 240       1.332e+01      -1.820e+01       5.294e-01           0.080           0.042           0.996       5.867e-03         -0.7573
 241       1.347e+01      -1.820e+01       5.131e-01           0.135           0.072           0.988       5.738e-03         -0.6072
 242       1.361e+01      -1.820e+01       4.905e-01           0.183           0.096           0.978       5.283e-03         -0.5018
 243       1.373e+01      -1.820e+01       4.649e-01           0.222           0.115           0.968       4.512e-03         -0.4179
 244       1.383e+01      -1.820e+01       4.404e-01           0.254           0.130           0.959       3.458e-03         -0.3361
 245       1.390e+01      -1.820e+01       4.212e-01           0.275           0.139           0.951       2.175e-03         -0.2395
 246       1.394e+01      -1.820e+01       4.101e-01           0.340           0.167           0.925       7.594e-04         -0.1005
Strip 10
 247       1.392e+01      -1.816e+01       4.060e-01          -0.028          -0.034          -0.999       7.948e-04         -0.1631
 248       1.389e+01      -1.816e+01       4.087e-01          -0.087          -0.060          -0.994       2.348e-03         -0.1595
 249       1.382e+01      -1.816e+01       4.143e-01          -0.075          -0.054          -0.996       3.757e-03         -0.1689
 250       1.371e+01      -1.816e+01       4.209e-01          -0.057          -0.046          -0.997       4.943e-03         -0.1563
 251       1.359e+01      -1.816e+01       4.265e-01          -0.034          -0.035          -0.999       5.839e-03         -0.1264
 252       1.345e+01      -1.816e+01       4.295e-01          -0.009          -0.022          -1.000       6.399e-03         -0.0823
 253       1.329e+01      -1.816e+01       4.291e-01           0.014          -0.010          -1.000       6.591e-03         -0.0252
 254       1.314e+01      -1.816e+01       4.251e-01           0.040           0.006          -0.999       6.406e-03          0.0457
 255       1.300e+01      -1.816e+01       4.163e-01           0.085           0.033          -0.996       5.866e-03          0.1250
 256       1.288e+01      -1.816e+01       4.042e-01           0.108           0.048          -0.993       4.974e-03          0.2293
 257       1.277e+01      -1.816e+01       3.940e-01           0.088           0.035          -0.996       3.765e-03          0.3924
 258       1.270e+01      -1.816e+01       3.910e-01          -0.032          -0.048          -0.998       2.339e-03          0.5530
 259       1.267e+01      -1.816e+01       3.989e-01          -0.553          -0.402          -0.730       1.076e-03         -0.7966
 260       1.267e+01      -1.816e+01       4.182e-01          -0.700          -0.476           0.533       1.519e-03         -4.2729
 261       1.270e+01      -1.816e+01       4.463e-01          -0.472          -0.313           0.824       2.860e-03         -2.5487
 262       1.277e+01      -1.816e+01       4.783e-01          -0.340          -0.222           0.914       4.117e-03         -1.8019
 263       1.288e+01      -1.816e+01       5.081e-01          -0.225          -0.146           0.963       5.136e-03         -1.5103
 264       1.300e+01      -1.816e+01       5.291e-01          -0.109          -0.071           0.992       5.892e-03         -1.2900
 265       1.314e+01      -1.816e+01       5.361e-01           0.006          -0.001           1.000       6.397e-03         -1.0153
 266       1.329e+01      -1.816e+01       5.295e-01           0.080           0.042           0.996       6.609e-03         -0.7577
 267       1.345e+01      -1.816e+01       5.132e-01           0.135           0.072           0.988       6.463e-03         -0.5836
 268       1.359e+01      -1.816e+01       4.903e-01           0.183           0.096           0.978       5.951e-03         -0.4559
 269       1.371e+01      -1.816e+01       4.645e-01           0.222           0.115           0.968       5.082e-03         -0.3500
 270       1.382e+01      -1.816e+01       4.398e-01           0.254           0.130           0.959       3.895e-03         -0.2464
 271       1.389e+01      -1.816e+01       4.204e-01           0.275           0.139           0.951       2.450e-03         -0.1324
 272       1.392e+01      -1.816e+01       4.092e-01           0.340           0.167           0.925       8.554e-04          0.0104
Strip 11
 273       1.390e+01      -1.812e+01       4.050e-01          -0.028          -0.034          -0.999       8.861e-04         -0.0828
 274       1.387e+01      -1.812e+01       4.077e-01          -0.087          -0.060          -0.994       2.617e-03         -0.0764
 275       1.379e+01      -1.812e+01       4.134e-01          -0.075          -0.054          -0.996       4.188e-03         -0.0851
 276       1.369e+01      -1.812e+01       4.200e-01          -0.057          -0.046          -0.997       5.510e-03         -0.0762
 277       1.357e+01      -1.812e+01       4.257e-01          -0.034          -0.035          -0.999       6.510e-03         -0.0527
 278       1.342e+01      -1.812e+01       4.287e-01          -0.009          -0.022          -1.000       7.133e-03         -0.0160
 279       1.327e+01      -1.812e+01       4.283e-01           0.014          -0.010          -1.000       7.348e-03          0.0346
 280       1.312e+01      -1.812e+01       4.243e-01           0.040           0.006          -0.999       7.141e-03          0.1012
 281       1.297e+01      -1.812e+01       4.153e-01           0.085           0.033          -0.996       6.539e-03          0.1776
 282       1.285e+01      -1.812e+01       4.031e-01           0.108           0.048          -0.993       5.545e-03          0.2780
 283       1.274e+01      -1.812e+01       3.929e-01           0.088           0.035          -0.996       4.197e-03          0.4317
 284       1.267e+01      -1.812e+01       3.899e-01          -0.032          -0.048          -0.998       2.608e-03          0.5605
 285       1.264e+01      -1.812e+01       3.978e-01          -0.553          -0.402          -0.730       1.199e-03         -0.9168
 286       1.264e+01      -1.812e+01       4.173e-01          -0.700          -0.476           0.533       1.693e-03         -4.5001
 287       1.267e+01      -1.811e+01       4.457e-01          -0.472          -0.313           0.824       3.188e-03         -2.6545
 288       1.274e+01      -1.811e+01       4.780e-01          -0.340          -0.222           0.914       4.589e-03         -1.8759
 289       1.285e+01      -1.811e+01       5.081e-01          -0.225          -0.146           0.963       5.726e-03         -1.5735
 290       1.297e+01      -1.811e+01       5.292e-01          -0.109          -0.071           0.992       6.568e-03         -1.3401
 291       1.312e+01      -1.811e+01       5.363e-01           0.006          -0.001           1.000       7.131e-03         -1.0470
 292       1.327e+01      -1.811e+01       5.297e-01           0.080           0.042           0.996       7.368e-03         -0.7689
 293       1.342e+01      -1.811e+01       5.132e-01           0.135           0.072           0.988       7.206e-03         -0.5751
 294       1.357e+01      -1.811e+01       4.901e-01           0.183           0.096           0.978       6.634e-03         -0.4294
 295       1.369e+01      -1.811e+01       4.640e-01           0.222           0.115           0.968       5.666e-03         -0.3064
 296       1.379e+01      -1.811e+01       4.391e-01           0.254           0.130           0.959       4.342e-03         -0.1869
 297       1.387e+01      -1.812e+01       4.196e-01           0.275           0.139           0.951       2.731e-03         -0.0609
 298       1.390e+01      -1.812e+01       4.082e-01           0.340           0.167           0.925       9.536e-04          0.0840
Strip 12
 299       1.388e+01      -1.807e+01       4.039e-01          -0.028          -0.034          -0.999       9.796e-04         -0.0247
 300       1.384e+01      -1.807e+01       4.066e-01          -0.087          -0.060          -0.994       2.893e-03         -0.0151
 301       1.377e+01      -1.807e+01       4.124e-01          -0.075          -0.054          -0.996       4.630e-03         -0.0218
 302       1.367e+01      -1.807e+01       4.191e-01          -0.057          -0.046          -0.997       6.091e-03         -0.0139
 303       1.354e+01      -1.807e+01       4.248e-01          -0.034          -0.035          -0.999       7.196e-03          0.0063
 304       1.340e+01      -1.807e+01       4.278e-01          -0.009          -0.022          -1.000       7.886e-03          0.0386
 305       1.324e+01      -1.807e+01       4.275e-01           0.014          -0.010          -1.000       8.123e-03          0.0854
 306       1.309e+01      -1.807e+01       4.233e-01           0.040           0.006          -0.999       7.895e-03          0.1492
 307       1.294e+01      -1.807e+01       4.143e-01           0.085           0.033          -0.996       7.229e-03          0.2229
 308       1.281e+01      -1.807e+01       4.020e-01           0.108           0.048          -0.993       6.130e-03          0.3186
 309       1.271e+01      -1.807e+01       3.917e-01           0.088           0.035          -0.996       4.640e-03          0.4635
 310       1.264e+01      -1.807e+01       3.886e-01          -0.032          -0.048          -0.998       2.883e-03          0.5630
 311       1.260e+01      -1.807e+01       3.966e-01          -0.553          -0.402          -0.730       1.326e-03         -1.0345
 312       1.260e+01      -1.807e+01       4.163e-01          -0.700          -0.476           0.533       1.871e-03         -4.7148
 313       1.264e+01      -1.807e+01       4.450e-01          -0.473          -0.313           0.824       3.524e-03         -2.7533
 314       1.271e+01      -1.806e+01       4.777e-01          -0.340          -0.222           0.914       5.073e-03         -1.9439
 315       1.281e+01      -1.806e+01       5.080e-01          -0.225          -0.146           0.963       6.330e-03         -1.6329
 316       1.294e+01      -1.806e+01       5.294e-01          -0.109          -0.071           0.992       7.261e-03         -1.3901
 317       1.309e+01      -1.806e+01       5.366e-01           0.006          -0.001           1.000       7.883e-03         -1.0824
 318       1.324e+01      -1.806e+01       5.298e-01           0.080           0.042           0.996       8.145e-03         -0.7874
 319       1.340e+01      -1.806e+01       5.132e-01           0.135           0.072           0.988       7.966e-03         -0.5771
 320       1.354e+01      -1.806e+01       4.898e-01           0.183           0.096           0.978       7.334e-03         -0.4163
 321       1.367e+01      -1.806e+01       4.635e-01           0.222           0.115           0.968       6.263e-03         -0.2793
 322       1.377e+01      -1.807e+01       4.384e-01           0.254           0.130           0.959       4.800e-03         -0.1473
 323       1.384e+01      -1.807e+01       4.186e-01           0.275           0.139           0.951       3.020e-03         -0.0126
 324       1.388e+01      -1.807e+01       4.071e-01           0.340           0.167           0.925       1.054e-03          0.1337
Strip 13
 325       1.386e+01      -1.801e+01       4.027e-01          -0.028          -0.034          -0.999       1.075e-03          0.0184
 326       1.382e+01      -1.801e+01       4.054e-01          -0.087          -0.060          -0.994       3.177e-03          0.0314
 327       1.375e+01      -1.801e+01       4.113e-01          -0.075          -0.054          -0.996       5.083e-03          0.0272
 328       1.364e+01      -1.801e+01       4.180e-01          -0.057          -0.046          -0.997       6.688e-03          0.0354
 329       1.351e+01      -1.801e+01       4.238e-01          -0.034          -0.035          -0.999       7.901e-03          0.0544
 330       1.337e+01      -1.801e+01       4.269e-01          -0.009          -0.022          -1.000       8.658e-03          0.0844
 331       1.321e+01      -1.801e+01       4.265e-01           0.014          -0.010          -1.000       8.918e-03          0.1290
 332       1.305e+01      -1.801e+01       4.224e-01           0.040           0.006          -0.999       8.668e-03          0.1907
 333       1.291e+01      -1.801e+01       4.133e-01           0.085           0.033          -0.996       7.937e-03          0.2616
 334       1.278e+01      -1.801e+01       4.008e-01           0.108           0.048          -0.993       6.730e-03          0.3524
 335       1.267e+01      -1.801e+01       3.903e-01           0.088           0.035          -0.996       5.094e-03          0.4895
 336       1.260e+01      -1.801e+01       3.873e-01          -0.032          -0.048          -0.998       3.165e-03          0.5620
 337       1.256e+01      -1.801e+01       3.953e-01          -0.553          -0.402          -0.730       1.456e-03         -1.1476
 338       1.256e+01      -1.801e+01       4.152e-01          -0.700          -0.476           0.533       2.054e-03         -4.9164
 339       1.260e+01      -1.801e+01       4.442e-01          -0.473          -0.313           0.824       3.869e-03         -2.8453
 340       1.267e+01      -1.801e+01       4.773e-01          -0.340          -0.222           0.914       5.569e-03         -2.0063
 341       1.278e+01      -1.801e+01       5.080e-01          -0.225          -0.146           0.963       6.949e-03         -1.6878
 342       1.291e+01      -1.801e+01       5.296e-01          -0.109          -0.071           0.992       7.972e-03         -1.4381
 343       1.305e+01      -1.801e+01       5.368e-01           0.006          -0.001           1.000       8.655e-03         -1.1191
 344       1.321e+01      -1.801e+01       5.300e-01           0.080           0.042           0.996       8.943e-03         -0.8102
 345       1.337e+01      -1.801e+01       5.132e-01           0.135           0.072           0.988       8.746e-03         -0.5861
 346       1.351e+01      -1.801e+01       4.896e-01           0.183           0.096           0.978       8.052e-03         -0.4123
 347       1.364e+01      -1.801e+01       4.630e-01           0.222           0.115           0.968       6.877e-03         -0.2635
 348       1.375e+01      -1.801e+01       4.375e-01           0.254           0.130           0.959       5.271e-03         -0.1214
 349       1.382e+01      -1.801e+01       4.176e-01           0.275           0.139           0.951       3.315e-03          0.0203
 350       1.386e+01      -1.801e+01       4.060e-01           0.340           0.167           0.925       1.158e-03          0.1675
Strip 14
 351       1.383e+01      -1.795e+01       4.014e-01          -0.028          -0.034          -0.999       1.174e-03          0.0509
 352       1.380e+01      -1.795e+01       4.042e-01          -0.087          -0.060          -0.994       3.468e-03          0.0672
 353       1.372e+01      -1.795e+01       4.101e-01          -0.075          -0.054          -0.996       5.549e-03          0.0660
 354       1.362e+01      -1.795e+01       4.169e-01          -0.057          -0.046          -0.997       7.301e-03          0.0753
 355       1.348e+01      -1.795e+01       4.227e-01          -0.034          -0.035          -0.999       8.625e-03          0.0942
 356       1.334e+01      -1.795e+01       4.259e-01          -0.009          -0.022          -1.000       9.452e-03          0.1232
 357       1.318e+01      -1.795e+01       4.255e-01           0.014          -0.010          -1.000       9.736e-03          0.1666
 358       1.302e+01      -1.795e+01       4.213e-01           0.040           0.006          -0.999       9.462e-03          0.2266
 359       1.287e+01      -1.795e+01       4.121e-01           0.085           0.033          -0.996       8.664e-03          0.2945
 360       1.274e+01      -1.795e+01       3.995e-01           0.108           0.048          -0.993       7.347e-03          0.3806
 361       1.263e+01      -1.795e+01       3.889e-01           0.088           0.035          -0.996       5.561e-03          0.5110
 362       1.256e+01      -1.795e+01       3.858e-01          -0.032          -0.048          -0.998       3.456e-03          0.5585
 363       1.252e+01      -1.795e+01       3.939e-01          -0.553          -0.401          -0.730       1.590e-03         -1.2551
 364       1.252e+01      -1.795e+01       4.141e-01          -0.700          -0.476           0.533       2.242e-03         -5.1039
 365       1.256e+01      -1.795e+01       4.434e-01          -0.473          -0.313           0.824       4.224e-03         -2.9300
 366       1.263e+01      -1.795e+01       4.769e-01          -0.340          -0.222           0.914       6.079e-03         -2.0632
 367       1.274e+01      -1.795e+01       5.079e-01          -0.226          -0.146           0.963       7.586e-03         -1.7379
 368       1.287e+01      -1.795e+01       5.298e-01          -0.109          -0.071           0.992       8.703e-03         -1.4833
 369       1.302e+01      -1.795e+01       5.371e-01           0.006          -0.001           1.000       9.448e-03         -1.1554
 370       1.318e+01      -1.795e+01       5.303e-01           0.080           0.042           0.996       9.763e-03         -0.8352
 371       1.334e+01      -1.795e+01       5.132e-01           0.135           0.072           0.988       9.548e-03         -0.5995
 372       1.348e+01      -1.795e+01       4.893e-01           0.183           0.096           0.978       8.791e-03         -0.4145
 373       1.362e+01      -1.795e+01       4.624e-01           0.222           0.115           0.968       7.508e-03         -0.2554
 374       1.372e+01      -1.795e+01       4.366e-01           0.253           0.130           0.959       5.754e-03         -0.1049
 375       1.380e+01      -1.795e+01       4.164e-01           0.275           0.139           0.951       3.619e-03          0.0425
 376       1.383e+01      -1.795e+01       4.047e-01           0.340           0.167           0.925       1.264e-03          0.1907
Strip 15
 377       1.381e+01      -1.789e+01       4.000e-01          -0.028          -0.034          -0.999       1.275e-03          0.0757
 378       1.377e+01      -1.789e+01       4.028e-01          -0.087          -0.060          -0.994       3.768e-03          0.0953
 379       1.369e+01      -1.789e+01       4.088e-01          -0.075          -0.054          -0.996       6.028e-03          0.0973
 380       1.359e+01      -1.789e+01       4.157e-01          -0.057          -0.046          -0.997       7.931e-03          0.1080
 381       1.345e+01      -1.789e+01       4.216e-01          -0.034          -0.035          -0.999       9.371e-03          0.1275
 382       1.330e+01      -1.789e+01       4.248e-01          -0.009          -0.022          -1.000       1.027e-02          0.1565
 383       1.314e+01      -1.789e+01       4.244e-01           0.014          -0.010          -1.000       1.058e-02          0.1991
 384       1.298e+01      -1.789e+01       4.201e-01           0.040           0.006          -0.999       1.028e-02          0.2575
 385       1.283e+01      -1.789e+01       4.108e-01           0.085           0.033          -0.996       9.412e-03          0.3224
 386       1.270e+01      -1.789e+01       3.980e-01           0.108           0.048          -0.993       7.982e-03          0.4042
 387       1.259e+01      -1.789e+01       3.873e-01           0.088           0.035          -0.996       6.041e-03          0.5288
 388       1.252e+01      -1.789e+01       3.842e-01          -0.032          -0.048          -0.998       3.754e-03          0.5536
 389       1.248e+01      -1.789e+01       3.924e-01          -0.553          -0.401          -0.730       1.727e-03         -1.3561
 390       1.248e+01      -1.789e+01       4.128e-01          -0.700          -0.476           0.533       2.436e-03         -5.2769
 391       1.252e+01      -1.789e+01       4.425e-01          -0.473          -0.313           0.824       4.588e-03         -3.0077
 392       1.259e+01      -1.789e+01       4.764e-01          -0.340          -0.222           0.914       6.604e-03         -2.1148
 393       1.270e+01      -1.789e+01       5.079e-01          -0.226          -0.146           0.963       8.241e-03         -1.7833
 394       1.283e+01      -1.789e+01       5.300e-01          -0.109          -0.071           0.992       9.454e-03         -1.5249
 395       1.298e+01      -1.789e+01       5.374e-01           0.006          -0.001           1.000       1.026e-02         -1.1902
 396       1.314e+01      -1.789e+01       5.305e-01           0.080           0.042           0.996       1.061e-02         -0.8608
 397       1.330e+01      -1.789e+01       5.132e-01           0.135           0.072           0.988       1.037e-02         -0.6154
 398       1.345e+01      -1.789e+01       4.890e-01           0.183           0.096           0.978       9.550e-03         -0.4207
 399       1.359e+01      -1.789e+01       4.617e-01           0.222           0.115           0.968       8.156e-03         -0.2527
 400       1.369e+01      -1.789e+01       4.357e-01           0.253           0.130           0.959       6.251e-03         -0.0948
 401       1.377e+01      -1.789e+01       4.152e-01           0.275           0.139           0.951       3.932e-03          0.0574
 402       1.381e+01      -1.789e+01       4.033e-01           0.340           0.167           0.925       1.373e-03          0.2064
Strip 16
 403       1.378e+01      -1.782e+01       3.985e-01          -0.028          -0.034          -0.999       1.380e-03          0.0950
 404       1.374e+01      -1.782e+01       4.013e-01          -0.087          -0.060          -0.994       4.076e-03          0.1177
[...]
5064       1.322e+01       1.830e+01       4.276e-01           0.040          -0.006          -0.999       3.613e-03         -0.2574
5065       1.309e+01       1.830e+01       4.190e-01           0.085          -0.033          -0.996       3.308e-03         -0.1429
5066       1.296e+01       1.830e+01       4.072e-01           0.108          -0.048          -0.993       2.805e-03         -0.0367
5067       1.287e+01       1.830e+01       3.974e-01           0.088          -0.035          -0.996       2.123e-03          0.1210
5068       1.280e+01       1.830e+01       3.945e-01          -0.032           0.048          -0.998       1.319e-03          0.4052
5069       1.276e+01       1.830e+01       4.021e-01          -0.553           0.402          -0.730       6.066e-04         -0.3472
5070       1.276e+01       1.830e+01       4.208e-01          -0.699           0.476           0.534       8.565e-04         -3.2600
5071       1.280e+01       1.830e+01       4.482e-01          -0.472           0.313           0.824       1.613e-03         -2.0573
5072       1.287e+01       1.829e+01       4.793e-01          -0.340           0.222           0.914       2.322e-03         -1.4610
5073       1.296e+01       1.829e+01       5.083e-01          -0.225           0.146           0.963       2.897e-03         -1.2569
5074       1.309e+01       1.829e+01       5.286e-01          -0.109           0.071           0.992       3.323e-03         -1.1348
5075       1.322e+01       1.829e+01       5.354e-01           0.006           0.001           1.000       3.607e-03         -0.9761
5076       1.337e+01       1.829e+01       5.290e-01           0.080          -0.042           0.996       3.727e-03         -0.8510
5077       1.352e+01       1.829e+01       5.131e-01           0.135          -0.072           0.988       3.645e-03         -0.8219
5078       1.366e+01       1.829e+01       4.909e-01           0.183          -0.096           0.978       3.355e-03         -0.8549
5079       1.378e+01       1.830e+01       4.658e-01           0.222          -0.115           0.968       2.866e-03         -0.9295
5080       1.388e+01       1.830e+01       4.419e-01           0.254          -0.130           0.959       2.196e-03         -1.0246
5081       1.395e+01       1.830e+01       4.230e-01           0.276          -0.139           0.951       1.381e-03         -1.0977
5082       1.398e+01       1.830e+01       4.121e-01           0.340          -0.167           0.925       4.823e-04         -1.0111
Strip 196
5083       1.399e+01       1.832e+01       4.096e-01          -0.028           0.034          -0.999       3.651e-04         -1.8703
5084       1.396e+01       1.832e+01       4.121e-01          -0.087           0.060          -0.994       1.078e-03         -1.8200
5085       1.389e+01       1.832e+01       4.176e-01          -0.075           0.054          -0.996       1.725e-03         -1.6021
5086       1.379e+01       1.832e+01       4.239e-01          -0.057           0.046          -0.997       2.270e-03         -1.2763
5087       1.367e+01       1.832e+01       4.293e-01          -0.034           0.035          -0.999       2.682e-03         -0.9604
5088       1.353e+01       1.832e+01       4.322e-01          -0.009           0.022          -1.000       2.939e-03         -0.6988
5089       1.338e+01       1.832e+01       4.319e-01           0.014           0.010          -1.000       3.027e-03         -0.4955
5090       1.324e+01       1.832e+01       4.280e-01           0.040          -0.006          -0.999       2.943e-03         -0.3346
5091       1.310e+01       1.832e+01       4.194e-01           0.085          -0.033          -0.996       2.694e-03         -0.2007
5092       1.298e+01       1.832e+01       4.077e-01           0.108          -0.048          -0.993       2.285e-03         -0.0892
5093       1.288e+01       1.832e+01       3.980e-01           0.088          -0.035          -0.996       1.729e-03          0.0456
5094       1.281e+01       1.832e+01       3.951e-01          -0.032           0.048          -0.998       1.075e-03          0.3102
5095       1.278e+01       1.832e+01       4.026e-01          -0.553           0.402          -0.730       4.940e-04         -0.2807
5096       1.278e+01       1.832e+01       4.213e-01          -0.699           0.476           0.534       6.977e-04         -2.9832
5097       1.281e+01       1.832e+01       4.485e-01          -0.472           0.313           0.824       1.314e-03         -1.9202
5098       1.288e+01       1.832e+01       4.795e-01          -0.339           0.222           0.914       1.891e-03         -1.3727
5099       1.298e+01       1.832e+01       5.083e-01          -0.225           0.146           0.963       2.359e-03         -1.2010
5100       1.310e+01       1.832e+01       5.285e-01          -0.109           0.071           0.992       2.706e-03         -1.1099
5101       1.324e+01       1.832e+01       5.353e-01           0.006           0.001           1.000       2.938e-03         -0.9885
5102       1.338e+01       1.832e+01       5.289e-01           0.080          -0.042           0.996       3.035e-03         -0.9057
5103       1.353e+01       1.832e+01       5.131e-01           0.135          -0.072           0.988       2.969e-03         -0.9343
5104       1.367e+01       1.832e+01       4.910e-01           0.183          -0.096           0.978       2.733e-03         -1.0611
5105       1.379e+01       1.832e+01       4.661e-01           0.222          -0.115           0.968       2.334e-03         -1.2862
5106       1.389e+01       1.832e+01       4.422e-01           0.254          -0.130           0.959       1.789e-03         -1.5809
5107       1.396e+01       1.832e+01       4.235e-01           0.276          -0.139           0.951       1.125e-03         -1.8710
5108       1.399e+01       1.832e+01       4.126e-01           0.340          -0.167           0.925       3.928e-04         -1.8746
Strip 197
5109       1.400e+01       1.834e+01       4.100e-01          -0.028           0.034          -0.999       2.829e-04         -3.4369
5110       1.396e+01       1.834e+01       4.125e-01          -0.087           0.060          -0.994       8.357e-04         -3.1869
5111       1.390e+01       1.834e+01       4.180e-01          -0.075           0.054          -0.996       1.337e-03         -2.4874
5112       1.380e+01       1.834e+01       4.243e-01          -0.057           0.046          -0.997       1.759e-03         -1.7605
5113       1.368e+01       1.834e+01       4.296e-01          -0.034           0.035          -0.999       2.079e-03         -1.2188
5114       1.354e+01       1.834e+01       4.325e-01          -0.009           0.022          -1.000       2.278e-03         -0.8472
5115       1.339e+01       1.834e+01       4.322e-01           0.014           0.010          -1.000       2.346e-03         -0.5912
5116       1.325e+01       1.834e+01       4.283e-01           0.040          -0.006          -0.999       2.280e-03         -0.4033
5117       1.311e+01       1.834e+01       4.198e-01           0.085          -0.033          -0.996       2.088e-03         -0.2509
5118       1.299e+01       1.834e+01       4.082e-01           0.108          -0.048          -0.993       1.771e-03         -0.1305
5119       1.289e+01       1.834e+01       3.984e-01           0.088          -0.035          -0.996       1.340e-03         -0.0079
5120       1.282e+01       1.834e+01       3.955e-01          -0.032           0.048          -0.998       8.327e-04          0.2032
5121       1.279e+01       1.834e+01       4.030e-01          -0.553           0.402          -0.730       3.829e-04         -0.2933
5122       1.279e+01       1.834e+01       4.216e-01          -0.699           0.476           0.534       5.407e-04         -2.6949
5123       1.282e+01       1.834e+01       4.487e-01          -0.472           0.313           0.824       1.018e-03         -1.7803
5124       1.289e+01       1.834e+01       4.796e-01          -0.339           0.222           0.914       1.466e-03         -1.2828
5125       1.299e+01       1.833e+01       5.083e-01          -0.225           0.146           0.963       1.829e-03         -1.1405
5126       1.311e+01       1.833e+01       5.285e-01          -0.109           0.071           0.992       2.098e-03         -1.0805
5127       1.325e+01       1.833e+01       5.352e-01           0.006           0.001           1.000       2.277e-03         -0.9998
5128       1.339e+01       1.833e+01       5.289e-01           0.080          -0.042           0.996       2.352e-03         -0.9579
5129       1.354e+01       1.833e+01       5.131e-01           0.135          -0.072           0.988       2.301e-03         -1.0401
5130       1.368e+01       1.834e+01       4.911e-01           0.183          -0.096           0.978       2.118e-03         -1.2667
5131       1.380e+01       1.834e+01       4.662e-01           0.222          -0.115           0.968       1.809e-03         -1.7149
5132       1.390e+01       1.834e+01       4.425e-01           0.254          -0.130           0.959       1.386e-03         -2.4566
5133       1.396e+01       1.834e+01       4.238e-01           0.276          -0.139           0.951       8.720e-04         -3.3572
5134       1.400e+01       1.834e+01       4.130e-01           0.340          -0.167           0.925       3.044e-04         -3.7157
Strip 198
5135       1.400e+01       1.835e+01       4.103e-01          -0.028           0.034          -0.999       2.015e-04         -7.6023
5136       1.397e+01       1.835e+01       4.128e-01          -0.087           0.060          -0.994       5.953e-04         -5.9012
5137       1.390e+01       1.835e+01       4.182e-01          -0.075           0.054          -0.996       9.525e-04         -3.6480
5138       1.380e+01       1.835e+01       4.245e-01          -0.057           0.046          -0.997       1.253e-03         -2.2310
5139       1.368e+01       1.835e+01       4.299e-01          -0.034           0.035          -0.999       1.481e-03         -1.4408
5140       1.355e+01       1.835e+01       4.328e-01          -0.009           0.022          -1.000       1.623e-03         -0.9743
5141       1.340e+01       1.835e+01       4.324e-01           0.014           0.010          -1.000       1.671e-03         -0.6769
5142       1.326e+01       1.835e+01       4.286e-01           0.040          -0.006          -0.999       1.624e-03         -0.4674
5143       1.312e+01       1.835e+01       4.201e-01           0.085          -0.033          -0.996       1.487e-03         -0.2985
5144       1.300e+01       1.835e+01       4.085e-01           0.108          -0.048          -0.993       1.261e-03         -0.1716
5145       1.290e+01       1.835e+01       3.987e-01           0.088          -0.035          -0.996       9.547e-04         -0.0593
5146       1.283e+01       1.835e+01       3.959e-01          -0.032           0.048          -0.998       5.932e-04          0.0814
5147       1.280e+01       1.835e+01       4.034e-01          -0.553           0.402          -0.730       2.727e-04         -0.5319
5148       1.280e+01       1.835e+01       4.219e-01          -0.699           0.476           0.534       3.852e-04         -2.3997
5149       1.283e+01       1.835e+01       4.489e-01          -0.472           0.313           0.824       7.255e-04         -1.6458
5150       1.290e+01       1.835e+01       4.797e-01          -0.339           0.222           0.914       1.044e-03         -1.1855
5151       1.300e+01       1.835e+01       5.083e-01          -0.225           0.146           0.963       1.303e-03         -1.0707
5152       1.312e+01       1.835e+01       5.284e-01          -0.109           0.071           0.992       1.494e-03         -1.0468
5153       1.326e+01       1.835e+01       5.352e-01           0.006           0.001           1.000       1.622e-03         -1.0170
5154       1.340e+01       1.835e+01       5.288e-01           0.080          -0.042           0.996       1.676e-03         -1.0192
5155       1.355e+01       1.835e+01       5.131e-01           0.135          -0.072           0.988       1.639e-03         -1.1470
5156       1.368e+01       1.835e+01       4.912e-01           0.183          -0.096           0.978       1.509e-03         -1.4468
5157       1.380e+01       1.835e+01       4.664e-01           0.222          -0.115           0.968       1.289e-03         -2.0886
5158       1.390e+01       1.835e+01       4.427e-01           0.254          -0.130           0.959       9.875e-04         -3.4975
5159       1.397e+01       1.835e+01       4.241e-01           0.276          -0.139           0.951       6.212e-04         -6.2262
5160       1.400e+01       1.835e+01       4.133e-01           0.340          -0.167           0.925       2.169e-04         -8.6352
Strip 199
5161       1.401e+01       1.836e+01       4.105e-01          -0.028           0.034          -0.999       1.207e-04        -21.7757
5162       1.397e+01       1.836e+01       4.130e-01          -0.087           0.060          -0.994       3.565e-04         -9.8917
5163       1.391e+01       1.836e+01       4.184e-01          -0.075           0.054          -0.996       5.705e-04         -4.6705
5164       1.381e+01       1.836e+01       4.247e-01          -0.057           0.046          -0.997       7.506e-04         -2.6096
5165       1.369e+01       1.836e+01       4.301e-01          -0.034           0.035          -0.999       8.868e-04         -1.6449
5166       1.355e+01       1.836e+01       4.329e-01          -0.009           0.022          -1.000       9.718e-04         -1.1098
5167       1.341e+01       1.836e+01       4.326e-01           0.014           0.010          -1.000       1.001e-03         -0.7772
5168       1.326e+01       1.836e+01       4.287e-01           0.040          -0.006          -0.999       9.729e-04         -0.5438
5169       1.313e+01       1.836e+01       4.203e-01           0.085          -0.033          -0.996       8.909e-04         -0.3508
5170       1.300e+01       1.836e+01       4.087e-01           0.108          -0.048          -0.993       7.555e-04         -0.2151
5171       1.291e+01       1.836e+01       3.990e-01           0.088          -0.035          -0.996       5.718e-04         -0.1205
5172       1.284e+01       1.836e+01       3.961e-01          -0.032           0.048          -0.998       3.553e-04         -0.0999
5173       1.280e+01       1.836e+01       4.036e-01          -0.553           0.402          -0.730       1.633e-04         -1.2691
5174       1.280e+01       1.836e+01       4.221e-01          -0.699           0.476           0.534       2.307e-04         -2.1944
5175       1.284e+01       1.836e+01       4.490e-01          -0.472           0.313           0.824       4.345e-04         -1.5308
5176       1.291e+01       1.836e+01       4.798e-01          -0.339           0.222           0.914       6.253e-04         -1.0829
5177       1.300e+01       1.836e+01       5.083e-01          -0.225           0.146           0.963       7.802e-04         -0.9976
5178       1.313e+01       1.836e+01       5.284e-01          -0.109           0.071           0.992       8.949e-04         -1.0251
5179       1.326e+01       1.836e+01       5.351e-01           0.006           0.001           1.000       9.714e-04         -1.0721
5180       1.341e+01       1.836e+01       5.288e-01           0.080          -0.042           0.996       1.004e-03         -1.1397
5181       1.355e+01       1.836e+01       5.131e-01           0.135          -0.072           0.988       9.815e-04         -1.3254
5182       1.369e+01       1.836e+01       4.912e-01           0.183          -0.096           0.978       9.036e-04         -1.6880
5183       1.381e+01       1.836e+01       4.665e-01           0.222          -0.115           0.968       7.717e-04         -2.4291
5184       1.391e+01       1.836e+01       4.428e-01           0.254          -0.130           0.959       5.914e-04         -4.2464
5185       1.397e+01       1.836e+01       4.243e-01           0.276          -0.139           0.951       3.720e-04         -9.6913
5186       1.401e+01       1.836e+01       4.135e-01           0.340          -0.167           0.925       1.299e-04        -25.2877
Strip 200
5187       1.401e+01       1.836e+01       4.106e-01          -0.028           0.034          -0.999       4.020e-05        -37.0004
5188       1.398e+01       1.836e+01       4.131e-01          -0.087           0.060          -0.994       1.187e-04        -12.6915
5189       1.391e+01       1.836e+01       4.185e-01          -0.075           0.054          -0.996       1.900e-04         -5.2246
5190       1.381e+01       1.836e+01       4.248e-01          -0.057           0.046          -0.997       2.500e-04         -2.8239
5191       1.369e+01       1.836e+01       4.301e-01          -0.034           0.035          -0.999       2.953e-04         -1.7750
5192       1.355e+01       1.836e+01       4.330e-01          -0.009           0.022          -1.000       3.236e-04         -1.2021
5193       1.341e+01       1.836e+01       4.327e-01           0.014           0.010          -1.000       3.334e-04         -0.8475
5194       1.326e+01       1.836e+01       4.288e-01           0.040          -0.006          -0.999       3.240e-04         -0.5974
5195       1.313e+01       1.836e+01       4.204e-01           0.085          -0.033          -0.996       2.967e-04         -0.3858
5196       1.301e+01       1.836e+01       4.088e-01           0.108          -0.048          -0.993       2.516e-04         -0.2428
5197       1.291e+01       1.836e+01       3.991e-01           0.088          -0.035          -0.996       1.904e-04         -0.1601
5198       1.284e+01       1.836e+01       3.962e-01          -0.032           0.048          -0.998       1.183e-04         -0.2453
5199       1.281e+01       1.836e+01       4.037e-01          -0.553           0.402          -0.730       5.440e-05         -1.9703
5200       1.281e+01       1.836e+01       4.222e-01          -0.699           0.476           0.534       7.683e-05         -2.1723
5201       1.284e+01       1.836e+01       4.491e-01          -0.472           0.313           0.824       1.447e-04         -1.4511
5202       1.291e+01       1.836e+01       4.798e-01          -0.339           0.222           0.914       2.083e-04         -1.0185
5203       1.301e+01       1.836e+01       5.083e-01          -0.225           0.146           0.963       2.598e-04         -0.9501
5204       1.313e+01       1.836e+01       5.284e-01          -0.109           0.071           0.992       2.980e-04         -1.0136
5205       1.326e+01       1.836e+01       5.351e-01           0.006           0.001           1.000       3.235e-04         -1.1187
5206       1.341e+01       1.836e+01       5.288e-01           0.080          -0.042           0.996       3.342e-04         -1.2370
5207       1.355e+01       1.836e+01       5.131e-01           0.135          -0.072           0.988       3.269e-04         -1.4668
5208       1.369e+01       1.836e+01       4.912e-01           0.183          -0.096           0.978       3.009e-04         -1.8719
5209       1.381e+01       1.836e+01       4.665e-01           0.222          -0.115           0.968       2.570e-04         -2.6558
5210       1.391e+01       1.836e+01       4.429e-01           0.254          -0.130           0.959       1.970e-04         -4.5924
5211       1.398e+01       1.836e+01       4.244e-01           0.276          -0.139           0.951       1.239e-04        -11.3987
5212       1.401e+01       1.836e+01       4.136e-01           0.340          -0.167           0.925       4.326e-05        -42.5309










